/*---------------------------------------------------------------------------*\
  =========                 |
  \\      /  F ield         | OpenFOAM: The Open Source CFD Toolbox
   \\    /   O peration     | Website:  https://openfoam.org
    \\  /    A nd           | Version:  6
     \\/     M anipulation  |
\*---------------------------------------------------------------------------*/
Build  : 6
Exec   : vcALEFoam
Date   : Oct 21 2020
Time   : 16:37:40
Host   : "DESKTOP-JSPBMTA"
PID    : 28708
I/O    : uncollated
Case   : /home/thomas/OpenFOAM/vcALE/tutorials/vcALEFoam/bendingColumn
nProcs : 1
sigFpe : Enabling floating point exception trapping (FOAM_SIGFPE).
fileModificationChecking : Monitoring run-time modified files using timeStampMaster (fileModificationSkew 10)
allowSystemOperations : Allowing user-supplied system call operations

// * * * * * * * * * * * * * * * * * * * * * * * * * * * * * * * * * * * * * //
Create time

Create mesh for time = 0

Reading dictionaries ...
Reading data from dictionaries ...

Creating mesh parameters ...
Creating mesh coordinate fields ...
Creating linear momentum fields ...
Creating strain measure fields ...
Creating constitutive model ...
Creating fields for wave speeds ...
Creating ALE objects ...
Creating fields for gradient ...
Creating fields for fluxes ...
Creating fields for angular momentum ...
Creating fields for post-processing ...
Creating variables for time ...
Printing data ...

Printing material properties ...
Constitutive model = neoHookean
Density = 1100 [1 -3 0 0 0 0 0]
Young's modulus = 17000000 [1 -1 -2 0 0 0 0]
Poisson's ratio = 0.45 [0 0 0 0 0 0 0]
Lame's first parameter lambda = 52758621 [1 -1 -2 0 0 0 0]
Lame's second parameter mu = 5862069 [1 -1 -2 0 0 0 0]
Bulk modulus kappa = 56666667 [1 -1 -2 0 0 0 0]
Linear pressure wave speed = 242.1171 [0 1 -1 0 0 0 0]
Linear shear wave speed = 73.001052 [0 1 -1 0 0 0 0]
aleModel: neoHookean
fictitious Motion Type: sinusoid
beta: 0.01
T: 2

Printing global momentum ...
 Global linear momentum = (0 0 0)
 Global angular momentum = (0 0 0)
Centroid of primal mesh = (-3.1080462e-18 3 -3.8669877e-18)
Centroid of dual mesh = (-1.9587919e-17 3 8.8181777e-18)

Time Step =1
 deltaT = 0.00041302329 s
 Time = 0.00041302329 s
aleF sample: (1 0 -0 0 1 0 0 -0 1)
aleF sample: (0.99996063 2.1534267e-22 0 -0.00039374762 1 0 0 0 1)
 Simulation completed = 0.013767443%

Time Step =2
 deltaT = 0.00041302329 s
 Time = 0.00082604657 s
aleF sample: (0.99996063 2.1534267e-22 0 -0.00039374762 1 0 0 0 1)
aleF sample: (0.99992125 4.3068524e-22 0 -0.00078749457 1 0 0 0 1)
 Simulation completed = 0.027534886%

Time Step =3
 deltaT = 0.00041302329 s
 Time = 0.0012390699 s
aleF sample: (0.99992125 4.3068524e-22 0 -0.00078749457 1 0 0 0 1)
aleF sample: (0.99988188 6.4602763e-22 0 -0.0011812402 1 0 0 0 1)
 Simulation completed = 0.041302329%

Time Step =4
 deltaT = 0.00041302329 s
 Time = 0.0016520931 s
aleF sample: (0.99988188 6.4602763e-22 0 -0.0011812402 1 0 0 0 1)
aleF sample: (0.9998425 8.6136976e-22 0 -0.0015749838 1 0 0 0 1)
 Simulation completed = 0.055069772%

Time Step =5
 deltaT = 0.00041302329 s
 Time = 0.0020651164 s
aleF sample: (0.9998425 8.6136976e-22 0 -0.0015749838 1 0 0 0 1)
aleF sample: (0.99980313 1.0767115e-21 0 -0.0019687248 1 0 0 0 1)
 Simulation completed = 0.068837214%

Time Step =6
 deltaT = 0.00041302329 s
 Time = 0.0024781397 s
aleF sample: (0.99980313 1.0767115e-21 0 -0.0019687248 1 0 0 0 1)
aleF sample: (0.99976375 1.2920528e-21 0 -0.0023624625 1 0 0 0 1)
 Simulation completed = 0.082604657%

Time Step =7
 deltaT = 0.00041302329 s
 Time = 0.002891163 s
aleF sample: (0.99976375 1.2920528e-21 0 -0.0023624625 1 0 0 0 1)
aleF sample: (0.99972438 1.5073936e-21 0 -0.0027561962 1 0 0 0 1)
 Simulation completed = 0.0963721%

Time Step =8
 deltaT = 0.00041302329 s
 Time = 0.0033041863 s
aleF sample: (0.99972438 1.5073936e-21 0 -0.0027561962 1 0 0 0 1)
aleF sample: (0.999685 1.7227337e-21 0 -0.0031499253 1 0 0 0 1)
 Simulation completed = 0.11013954%

Time Step =9
 deltaT = 0.00041302329 s
 Time = 0.0037172096 s
aleF sample: (0.999685 1.7227337e-21 0 -0.0031499253 1 0 0 0 1)
aleF sample: (0.99964563 1.9380731e-21 0 -0.003543649 1 0 0 0 1)
 Simulation completed = 0.12390699%

Time Step =10
 deltaT = 0.00041302329 s
 Time = 0.0041302329 s
aleF sample: (0.99964563 1.9380731e-21 0 -0.003543649 1 0 0 0 1)
aleF sample: (0.99960626 2.1534117e-21 0 -0.0039373668 1 0 0 0 1)
 Simulation completed = 0.13767443%

Time Step =11
 deltaT = 0.00041302329 s
 Time = 0.0045432562 s
aleF sample: (0.99960626 2.1534117e-21 0 -0.0039373668 1 0 0 0 1)
aleF sample: (0.99956688 2.3687494e-21 0 -0.004331078 1 0 0 0 1)
 Simulation completed = 0.15144187%

Time Step =12
 deltaT = 0.00041302329 s
 Time = 0.0049562794 s
aleF sample: (0.99956688 2.3687494e-21 0 -0.004331078 1 0 0 0 1)
aleF sample: (0.99952751 2.5840861e-21 0 -0.0047247818 1 0 0 0 1)
 Simulation completed = 0.16520931%

Time Step =13
 deltaT = 0.00041302329 s
 Time = 0.0053693027 s
aleF sample: (0.99952751 2.5840861e-21 0 -0.0047247818 1 0 0 0 1)
aleF sample: (0.99948813 2.7994217e-21 0 -0.0051184777 1 0 0 0 1)
 Simulation completed = 0.17897676%

Time Step =14
 deltaT = 0.00041302329 s
 Time = 0.005782326 s
aleF sample: (0.99948813 2.7994217e-21 0 -0.0051184777 1 0 0 0 1)
aleF sample: (0.99944876 3.0147561e-21 0 -0.005512165 1 0 0 0 1)
 Simulation completed = 0.1927442%

Time Step =15
 deltaT = 0.00041302329 s
 Time = 0.0061953493 s
aleF sample: (0.99944876 3.0147561e-21 0 -0.005512165 1 0 0 0 1)
aleF sample: (0.99940939 3.2300892e-21 0 -0.005905843 1 0 0 0 1)
 Simulation completed = 0.20651164%

Time Step =16
 deltaT = 0.00041302329 s
 Time = 0.0066083726 s
aleF sample: (0.99940939 3.2300892e-21 0 -0.005905843 1 0 0 0 1)
aleF sample: (0.99937001 3.445421e-21 0 -0.0062995111 1 0 0 0 1)
 Simulation completed = 0.22027909%

Time Step =17
 deltaT = 0.00041302329 s
 Time = 0.0070213959 s
aleF sample: (0.99937001 3.445421e-21 0 -0.0062995111 1 0 0 0 1)
aleF sample: (0.99933064 3.6607514e-21 0 -0.0066931686 1 0 0 0 1)
 Simulation completed = 0.23404653%

Time Step =18
 deltaT = 0.00041302329 s
 Time = 0.0074344192 s
aleF sample: (0.99933064 3.6607514e-21 0 -0.0066931686 1 0 0 0 1)
aleF sample: (0.99929127 3.8760802e-21 0 -0.0070868148 1 0 0 0 1)
 Simulation completed = 0.24781397%

Time Step =19
 deltaT = 0.00041302329 s
 Time = 0.0078474424 s
aleF sample: (0.99929127 3.8760802e-21 0 -0.0070868148 1 0 0 0 1)
aleF sample: (0.9992519 4.0914073e-21 0 -0.007480449 1 0 0 0 1)
 Simulation completed = 0.26158141%

Time Step =20
 deltaT = 0.00041302329 s
 Time = 0.0082604657 s
aleF sample: (0.9992519 4.0914073e-21 0 -0.007480449 1 0 0 0 1)
aleF sample: (0.99921253 4.3067328e-21 0 -0.0078740707 1 0 0 0 1)
 Simulation completed = 0.27534886%

Time Step =21
 deltaT = 0.00041302329 s
 Time = 0.008673489 s
aleF sample: (0.99921253 4.3067328e-21 0 -0.0078740707 1 0 0 0 1)
aleF sample: (0.99917316 4.5220564e-21 0 -0.0082676791 1 0 0 0 1)
 Simulation completed = 0.2891163%

Time Step =22
 deltaT = 0.00041302329 s
 Time = 0.0090865123 s
aleF sample: (0.99917316 4.5220564e-21 0 -0.0082676791 1 0 0 0 1)
aleF sample: (0.99913378 4.7373781e-21 0 -0.0086612736 1 0 0 0 1)
 Simulation completed = 0.30288374%

Time Step =23
 deltaT = 0.00041302329 s
 Time = 0.0094995356 s
aleF sample: (0.99913378 4.7373781e-21 0 -0.0086612736 1 0 0 0 1)
aleF sample: (0.99909441 4.9526979e-21 0 -0.0090548535 1 0 0 0 1)
 Simulation completed = 0.31665119%

Time Step =24
 deltaT = 0.00041302329 s
 Time = 0.0099125589 s
aleF sample: (0.99909441 4.9526979e-21 0 -0.0090548535 1 0 0 0 1)
aleF sample: (0.99905504 5.1680155e-21 0 -0.0094484182 1 0 0 0 1)
 Simulation completed = 0.33041863%

Time Step =25
 deltaT = 0.00041302329 s
 Time = 0.010325582 s
aleF sample: (0.99905504 5.1680155e-21 0 -0.0094484182 1 0 0 0 1)
aleF sample: (0.99901567 5.383331e-21 0 -0.0098419669 1 0 0 0 1)
 Simulation completed = 0.34418607%

Time Step =26
 deltaT = 0.00041302329 s
 Time = 0.010738605 s
aleF sample: (0.99901567 5.383331e-21 0 -0.0098419669 1 0 0 0 1)
aleF sample: (0.9989763 5.5986442e-21 0 -0.010235499 1 0 0 0 1)
 Simulation completed = 0.35795352%

Time Step =27
 deltaT = 0.00041302329 s
 Time = 0.011151629 s
aleF sample: (0.9989763 5.5986442e-21 0 -0.010235499 1 0 0 0 1)
aleF sample: (0.99893694 5.813955e-21 0 -0.010629014 1 0 0 0 1)
 Simulation completed = 0.37172096%

Time Step =28
 deltaT = 0.00041302329 s
 Time = 0.011564652 s
aleF sample: (0.99893694 5.813955e-21 0 -0.010629014 1 0 0 0 1)
aleF sample: (0.99889757 6.0292635e-21 0 -0.011022511 1 0 0 0 1)
 Simulation completed = 0.3854884%

Time Step =29
 deltaT = 0.00041302329 s
 Time = 0.011977675 s
aleF sample: (0.99889757 6.0292635e-21 0 -0.011022511 1 0 0 0 1)
aleF sample: (0.9988582 6.2445693e-21 0 -0.01141599 1 0 0 0 1)
 Simulation completed = 0.39925584%

Time Step =30
 deltaT = 0.00041302329 s
 Time = 0.012390699 s
aleF sample: (0.9988582 6.2445693e-21 0 -0.01141599 1 0 0 0 1)
aleF sample: (0.99881883 6.4598726e-21 0 -0.011809449 1 0 0 0 1)
 Simulation completed = 0.41302329%

Time Step =31
 deltaT = 0.00041302329 s
 Time = 0.012803722 s
aleF sample: (0.99881883 6.4598726e-21 0 -0.011809449 1 0 0 0 1)
aleF sample: (0.99877946 6.6751731e-21 0 -0.012202888 1 0 0 0 1)
 Simulation completed = 0.42679073%

Time Step =32
 deltaT = 0.00041302329 s
 Time = 0.013216745 s
aleF sample: (0.99877946 6.6751731e-21 0 -0.012202888 1 0 0 0 1)
aleF sample: (0.9987401 6.8904708e-21 0 -0.012596307 1 0 0 0 1)
 Simulation completed = 0.44055817%

Time Step =33
 deltaT = 0.00041302329 s
 Time = 0.013629768 s
aleF sample: (0.9987401 6.8904708e-21 0 -0.012596307 1 0 0 0 1)
aleF sample: (0.99870073 7.1057656e-21 0 -0.012989705 1 0 0 0 1)
 Simulation completed = 0.45432562%

Time Step =34
 deltaT = 0.00041302329 s
 Time = 0.014042792 s
aleF sample: (0.99870073 7.1057656e-21 0 -0.012989705 1 0 0 0 1)
aleF sample: (0.99866137 7.3210574e-21 0 -0.013383081 1 0 0 0 1)
 Simulation completed = 0.46809306%

Time Step =35
 deltaT = 0.00041302329 s
 Time = 0.014455815 s
aleF sample: (0.99866137 7.3210574e-21 0 -0.013383081 1 0 0 0 1)
aleF sample: (0.998622 7.5363462e-21 0 -0.013776434 1 0 0 0 1)
 Simulation completed = 0.4818605%

Time Step =36
 deltaT = 0.00041302329 s
 Time = 0.014868838 s
aleF sample: (0.998622 7.5363462e-21 0 -0.013776434 1 0 0 0 1)
aleF sample: (0.99858264 7.7516317e-21 0 -0.014169764 1 0 0 0 1)
 Simulation completed = 0.49562794%

Time Step =37
 deltaT = 0.00041302329 s
 Time = 0.015281862 s
aleF sample: (0.99858264 7.7516317e-21 0 -0.014169764 1 0 0 0 1)
aleF sample: (0.99854327 7.966914e-21 0 -0.01456307 1 0 0 0 1)
 Simulation completed = 0.50939539%

Time Step =38
 deltaT = 0.00041302329 s
 Time = 0.015694885 s
aleF sample: (0.99854327 7.966914e-21 0 -0.01456307 1 0 0 0 1)
aleF sample: (0.99850391 8.182193e-21 0 -0.014956352 1 0 0 0 1)
 Simulation completed = 0.52316283%

Time Step =39
 deltaT = 0.00041302329 s
 Time = 0.016107908 s
aleF sample: (0.99850391 8.182193e-21 0 -0.014956352 1 0 0 0 1)
aleF sample: (0.99846455 8.3974685e-21 0 -0.015349608 1 0 0 0 1)
 Simulation completed = 0.53693027%

Time Step =40
 deltaT = 0.00041302329 s
 Time = 0.016520931 s
aleF sample: (0.99846455 8.3974685e-21 0 -0.015349608 1 0 0 0 1)
aleF sample: (0.99842519 8.6127404e-21 0 -0.015742839 1 0 0 0 1)
 Simulation completed = 0.55069772%

Time Step =41
 deltaT = 0.00041302329 s
 Time = 0.016933955 s
aleF sample: (0.99842519 8.6127404e-21 0 -0.015742839 1 0 0 0 1)
aleF sample: (0.99838582 8.8280088e-21 0 -0.016136043 1 0 0 0 1)
 Simulation completed = 0.56446516%

Time Step =42
 deltaT = 0.00041302329 s
 Time = 0.017346978 s
aleF sample: (0.99838582 8.8280088e-21 0 -0.016136043 1 0 0 0 1)
aleF sample: (0.99834646 9.0432734e-21 0 -0.01652922 1 0 0 0 1)
 Simulation completed = 0.5782326%

Time Step =43
 deltaT = 0.00041302329 s
 Time = 0.017760001 s
aleF sample: (0.99834646 9.0432734e-21 0 -0.01652922 1 0 0 0 1)
aleF sample: (0.9983071 9.2585342e-21 0 -0.016922369 1 0 0 0 1)
 Simulation completed = 0.59200004%

Time Step =44
 deltaT = 0.00041302329 s
 Time = 0.018173025 s
aleF sample: (0.9983071 9.2585342e-21 0 -0.016922369 1 0 0 0 1)
aleF sample: (0.99826775 9.4737912e-21 0 -0.01731549 1 0 0 0 1)
 Simulation completed = 0.60576749%

Time Step =45
 deltaT = 0.00041302329 s
 Time = 0.018586048 s
aleF sample: (0.99826775 9.4737912e-21 0 -0.01731549 1 0 0 0 1)
aleF sample: (0.99822839 9.6890441e-21 0 -0.017708581 1 0 0 0 1)
 Simulation completed = 0.61953493%

Time Step =46
 deltaT = 0.00041302329 s
 Time = 0.018999071 s
aleF sample: (0.99822839 9.6890441e-21 0 -0.017708581 1 0 0 0 1)
aleF sample: (0.99818903 9.904293e-21 0 -0.018101643 1 0 0 0 1)
 Simulation completed = 0.63330237%

Time Step =47
 deltaT = 0.00041302329 s
 Time = 0.019412094 s
aleF sample: (0.99818903 9.904293e-21 0 -0.018101643 1 0 0 0 1)
aleF sample: (0.99814967 1.0119538e-20 0 -0.018494674 1 0 0 0 1)
 Simulation completed = 0.64706982%

Time Step =48
 deltaT = 0.00041302329 s
 Time = 0.019825118 s
aleF sample: (0.99814967 1.0119538e-20 0 -0.018494674 1 0 0 0 1)
aleF sample: (0.99811032 1.0334778e-20 0 -0.018887674 1 0 0 0 1)
 Simulation completed = 0.66083726%

Time Step =49
 deltaT = 0.00041302329 s
 Time = 0.020238141 s
aleF sample: (0.99811032 1.0334778e-20 0 -0.018887674 1 0 0 0 1)
aleF sample: (0.99807096 1.0550014e-20 0 -0.019280643 1 0 0 0 1)
 Simulation completed = 0.6746047%

Time Step =50
 deltaT = 0.00041302329 s
 Time = 0.020651164 s
aleF sample: (0.99807096 1.0550014e-20 0 -0.019280643 1 0 0 0 1)
aleF sample: (0.99803161 1.0765246e-20 0 -0.019673578 1 0 0 0 1)
 Simulation completed = 0.68837214%

Time Step =51
 deltaT = 0.00041302329 s
 Time = 0.021064188 s
aleF sample: (0.99803161 1.0765246e-20 0 -0.019673578 1 0 0 0 1)
aleF sample: (0.99799225 1.0980473e-20 0 -0.020066481 1 0 0 0 1)
 Simulation completed = 0.70213959%

Time Step =52
 deltaT = 0.00041302329 s
 Time = 0.021477211 s
aleF sample: (0.99799225 1.0980473e-20 0 -0.020066481 1 0 0 0 1)
aleF sample: (0.9979529 1.1195695e-20 0 -0.02045935 1 0 0 0 1)
 Simulation completed = 0.71590703%

Time Step =53
 deltaT = 0.00041302329 s
 Time = 0.021890234 s
aleF sample: (0.9979529 1.1195695e-20 0 -0.02045935 1 0 0 0 1)
aleF sample: (0.99791355 1.1410913e-20 0 -0.020852184 1 0 0 0 1)
 Simulation completed = 0.72967447%

Time Step =54
 deltaT = 0.00041302329 s
 Time = 0.022303257 s
aleF sample: (0.99791355 1.1410913e-20 0 -0.020852184 1 0 0 0 1)
aleF sample: (0.9978742 1.1626126e-20 0 -0.021244984 1 0 0 0 1)
 Simulation completed = 0.74344192%

Time Step =55
 deltaT = 0.00041302329 s
 Time = 0.022716281 s
aleF sample: (0.9978742 1.1626126e-20 0 -0.021244984 1 0 0 0 1)
aleF sample: (0.99783485 1.1841334e-20 0 -0.021637747 1 0 0 0 1)
 Simulation completed = 0.75720936%

Time Step =56
 deltaT = 0.00041302329 s
 Time = 0.023129304 s
aleF sample: (0.99783485 1.1841334e-20 0 -0.021637747 1 0 0 0 1)
aleF sample: (0.9977955 1.2056537e-20 0 -0.022030474 1 0 0 0 1)
 Simulation completed = 0.7709768%

Time Step =57
 deltaT = 0.00041302329 s
 Time = 0.023542327 s
aleF sample: (0.9977955 1.2056537e-20 0 -0.022030474 1 0 0 0 1)
aleF sample: (0.99775615 1.2271735e-20 0 -0.022423165 1 0 0 0 1)
 Simulation completed = 0.78474424%

Time Step =58
 deltaT = 0.00041302329 s
 Time = 0.023955351 s
aleF sample: (0.99775615 1.2271735e-20 0 -0.022423165 1 0 0 0 1)
aleF sample: (0.9977168 1.2486928e-20 0 -0.022815817 1 0 0 0 1)
 Simulation completed = 0.79851169%

Time Step =59
 deltaT = 0.00041302329 s
 Time = 0.024368374 s
aleF sample: (0.9977168 1.2486928e-20 0 -0.022815817 1 0 0 0 1)
aleF sample: (0.99767746 1.2702116e-20 0 -0.023208431 1 0 0 0 1)
 Simulation completed = 0.81227913%

Time Step =60
 deltaT = 0.00041302329 s
 Time = 0.024781397 s
aleF sample: (0.99767746 1.2702116e-20 0 -0.023208431 1 0 0 0 1)
aleF sample: (0.99763811 1.2917298e-20 0 -0.023601006 1 0 0 0 1)
 Simulation completed = 0.82604657%

Time Step =61
 deltaT = 0.00041302329 s
 Time = 0.02519442 s
aleF sample: (0.99763811 1.2917298e-20 0 -0.023601006 1 0 0 0 1)
aleF sample: (0.99759877 1.3132475e-20 0 -0.023993541 1 0 0 0 1)
 Simulation completed = 0.83981402%

Time Step =62
 deltaT = 0.00041302329 s
 Time = 0.025607444 s
aleF sample: (0.99759877 1.3132475e-20 0 -0.023993541 1 0 0 0 1)
aleF sample: (0.99755942 1.3347646e-20 0 -0.024386035 1 0 0 0 1)
 Simulation completed = 0.85358146%

Time Step =63
 deltaT = 0.00041302329 s
 Time = 0.026020467 s
aleF sample: (0.99755942 1.3347646e-20 0 -0.024386035 1 0 0 0 1)
aleF sample: (0.99752008 1.3562812e-20 0 -0.024778489 1 0 0 0 1)
 Simulation completed = 0.8673489%

Time Step =64
 deltaT = 0.00041302329 s
 Time = 0.02643349 s
aleF sample: (0.99752008 1.3562812e-20 0 -0.024778489 1 0 0 0 1)
aleF sample: (0.99748074 1.3777972e-20 0 -0.025170901 1 0 0 0 1)
 Simulation completed = 0.88111634%

Time Step =65
 deltaT = 0.00041302329 s
 Time = 0.026846514 s
aleF sample: (0.99748074 1.3777972e-20 0 -0.025170901 1 0 0 0 1)
aleF sample: (0.9974414 1.3993126e-20 0 -0.02556327 1 0 0 0 1)
 Simulation completed = 0.89488379%

Time Step =66
 deltaT = 0.00041302329 s
 Time = 0.027259537 s
aleF sample: (0.9974414 1.3993126e-20 0 -0.02556327 1 0 0 0 1)
aleF sample: (0.99740206 1.4208274e-20 0 -0.025955597 1 0 0 0 1)
 Simulation completed = 0.90865123%

Time Step =67
 deltaT = 0.00041302329 s
 Time = 0.02767256 s
aleF sample: (0.99740206 1.4208274e-20 0 -0.025955597 1 0 0 0 1)
aleF sample: (0.99736272 1.4423417e-20 0 -0.02634788 1 0 0 0 1)
 Simulation completed = 0.92241867%

Time Step =68
 deltaT = 0.00041302329 s
 Time = 0.028085583 s
aleF sample: (0.99736272 1.4423417e-20 0 -0.02634788 1 0 0 0 1)
aleF sample: (0.99732338 1.4638553e-20 0 -0.026740118 1 0 0 0 1)
 Simulation completed = 0.93618612%

Time Step =69
 deltaT = 0.00041302329 s
 Time = 0.028498607 s
aleF sample: (0.99732338 1.4638553e-20 0 -0.026740118 1 0 0 0 1)
aleF sample: (0.99728405 1.4853683e-20 0 -0.027132311 1 0 0 0 1)
 Simulation completed = 0.94995356%

Time Step =70
 deltaT = 0.00041302329 s
 Time = 0.02891163 s
aleF sample: (0.99728405 1.4853683e-20 0 -0.027132311 1 0 0 0 1)
aleF sample: (0.99724471 1.5068807e-20 0 -0.027524459 1 0 0 0 1)
 Simulation completed = 0.963721%

Time Step =71
 deltaT = 0.00041302329 s
 Time = 0.029324653 s
aleF sample: (0.99724471 1.5068807e-20 0 -0.027524459 1 0 0 0 1)
aleF sample: (0.99720538 1.5283924e-20 0 -0.027916561 1 0 0 0 1)
 Simulation completed = 0.97748845%

Time Step =72
 deltaT = 0.00041302329 s
 Time = 0.029737677 s
aleF sample: (0.99720538 1.5283924e-20 0 -0.027916561 1 0 0 0 1)
aleF sample: (0.99716605 1.5499035e-20 0 -0.028308615 1 0 0 0 1)
 Simulation completed = 0.99125589%

Time Step =73
 deltaT = 0.00041302329 s
 Time = 0.0301507 s
aleF sample: (0.99716605 1.5499035e-20 0 -0.028308615 1 0 0 0 1)
aleF sample: (0.99712672 1.571414e-20 0 -0.028700622 1 0 0 0 1)
 Simulation completed = 1.0050233%

Time Step =74
 deltaT = 0.00041302329 s
 Time = 0.030563723 s
aleF sample: (0.99712672 1.571414e-20 0 -0.028700622 1 0 0 0 1)
aleF sample: (0.99708739 1.5929238e-20 0 -0.02909258 1 0 0 0 1)
 Simulation completed = 1.0187908%

Time Step =75
 deltaT = 0.00041302329 s
 Time = 0.030976746 s
aleF sample: (0.99708739 1.5929238e-20 0 -0.02909258 1 0 0 0 1)
aleF sample: (0.99704806 1.6144329e-20 0 -0.02948449 1 0 0 0 1)
 Simulation completed = 1.0325582%

Time Step =76
 deltaT = 0.00041302329 s
 Time = 0.03138977 s
aleF sample: (0.99704806 1.6144329e-20 0 -0.02948449 1 0 0 0 1)
aleF sample: (0.99700873 1.6359413e-20 0 -0.029876349 1 0 0 0 1)
 Simulation completed = 1.0463257%

Time Step =77
 deltaT = 0.00041302329 s
 Time = 0.031802793 s
aleF sample: (0.99700873 1.6359413e-20 0 -0.029876349 1 0 0 0 1)
aleF sample: (0.9969694 1.6574491e-20 0 -0.030268159 1 0 0 0 1)
 Simulation completed = 1.0600931%

Time Step =78
 deltaT = 0.00041302329 s
 Time = 0.032215816 s
aleF sample: (0.9969694 1.6574491e-20 0 -0.030268159 1 0 0 0 1)
aleF sample: (0.99693008 1.6789561e-20 0 -0.030659917 1 0 0 0 1)
 Simulation completed = 1.0738605%

Time Step =79
 deltaT = 0.00041302329 s
 Time = 0.03262884 s
aleF sample: (0.99693008 1.6789561e-20 0 -0.030659917 1 0 0 0 1)
aleF sample: (0.99689075 1.7004625e-20 0 -0.031051624 1 0 0 0 1)
 Simulation completed = 1.087628%

Time Step =80
 deltaT = 0.00041302329 s
 Time = 0.033041863 s
aleF sample: (0.99689075 1.7004625e-20 0 -0.031051624 1 0 0 0 1)
aleF sample: (0.99685143 1.7219681e-20 0 -0.031443279 1 0 0 0 1)
 Simulation completed = 1.1013954%

Time Step =81
 deltaT = 0.00041302329 s
 Time = 0.033454886 s
aleF sample: (0.99685143 1.7219681e-20 0 -0.031443279 1 0 0 0 1)
aleF sample: (0.99681211 1.743473e-20 0 -0.031834881 1 0 0 0 1)
 Simulation completed = 1.1151629%

Time Step =82
 deltaT = 0.00041302329 s
 Time = 0.03386791 s
aleF sample: (0.99681211 1.743473e-20 0 -0.031834881 1 0 0 0 1)
aleF sample: (0.99677279 1.7649772e-20 0 -0.032226429 1 0 0 0 1)
 Simulation completed = 1.1289303%

Time Step =83
 deltaT = 0.00041302329 s
 Time = 0.034280933 s
aleF sample: (0.99677279 1.7649772e-20 0 -0.032226429 1 0 0 0 1)
aleF sample: (0.99673347 1.7864806e-20 0 -0.032617922 1 0 0 0 1)
 Simulation completed = 1.1426978%

Time Step =84
 deltaT = 0.00041302329 s
 Time = 0.034693956 s
aleF sample: (0.99673347 1.7864806e-20 0 -0.032617922 1 0 0 0 1)
aleF sample: (0.99669416 1.8079833e-20 0 -0.033009361 1 0 0 0 1)
 Simulation completed = 1.1564652%

Time Step =85
 deltaT = 0.00041302329 s
 Time = 0.035106979 s
aleF sample: (0.99669416 1.8079833e-20 0 -0.033009361 1 0 0 0 1)
aleF sample: (0.99665484 1.8294852e-20 0 -0.033400745 1 0 0 0 1)
 Simulation completed = 1.1702326%

Time Step =86
 deltaT = 0.00041302329 s
 Time = 0.035520003 s
aleF sample: (0.99665484 1.8294852e-20 0 -0.033400745 1 0 0 0 1)
aleF sample: (0.99661553 1.8509863e-20 0 -0.033792072 1 0 0 0 1)
 Simulation completed = 1.1840001%

Time Step =87
 deltaT = 0.00041302329 s
 Time = 0.035933026 s
aleF sample: (0.99661553 1.8509863e-20 0 -0.033792072 1 0 0 0 1)
aleF sample: (0.99657621 1.8724867e-20 0 -0.034183342 1 0 0 0 1)
 Simulation completed = 1.1977675%

Time Step =88
 deltaT = 0.00041302329 s
 Time = 0.036346049 s
aleF sample: (0.99657621 1.8724867e-20 0 -0.034183342 1 0 0 0 1)
aleF sample: (0.9965369 1.8939863e-20 0 -0.034574555 1 0 0 0 1)
 Simulation completed = 1.211535%

Time Step =89
 deltaT = 0.00041302329 s
 Time = 0.036759073 s
aleF sample: (0.9965369 1.8939863e-20 0 -0.034574555 1 0 0 0 1)
aleF sample: (0.99649759 1.9154851e-20 0 -0.034965709 1 0 0 0 1)
 Simulation completed = 1.2253024%

Time Step =90
 deltaT = 0.00041302329 s
 Time = 0.037172096 s
aleF sample: (0.99649759 1.9154851e-20 0 -0.034965709 1 0 0 0 1)
aleF sample: (0.99645828 1.936983e-20 0 -0.035356805 1 0 0 0 1)
 Simulation completed = 1.2390699%

Time Step =91
 deltaT = 0.00041302329 s
 Time = 0.037585119 s
aleF sample: (0.99645828 1.936983e-20 0 -0.035356805 1 0 0 0 1)
aleF sample: (0.99641898 1.9584802e-20 0 -0.035747841 1 0 0 0 1)
 Simulation completed = 1.2528373%

Time Step =92
 deltaT = 0.00041302329 s
 Time = 0.037998142 s
aleF sample: (0.99641898 1.9584802e-20 0 -0.035747841 1 0 0 0 1)
aleF sample: (0.99637967 1.9799765e-20 0 -0.036138817 1 0 0 0 1)
 Simulation completed = 1.2666047%

Time Step =93
 deltaT = 0.00041302329 s
 Time = 0.038411166 s
aleF sample: (0.99637967 1.9799765e-20 0 -0.036138817 1 0 0 0 1)
aleF sample: (0.99634037 2.001472e-20 0 -0.036529732 1 0 0 0 1)
 Simulation completed = 1.2803722%

Time Step =94
 deltaT = 0.00041302329 s
 Time = 0.038824189 s
aleF sample: (0.99634037 2.001472e-20 0 -0.036529732 1 0 0 0 1)
aleF sample: (0.99630107 2.0229667e-20 0 -0.036920585 1 0 0 0 1)
 Simulation completed = 1.2941396%

Time Step =95
 deltaT = 0.00041302329 s
 Time = 0.039237212 s
aleF sample: (0.99630107 2.0229667e-20 0 -0.036920585 1 0 0 0 1)
aleF sample: (0.99626176 2.0444605e-20 0 -0.037311376 1 0 0 0 1)
 Simulation completed = 1.3079071%

Time Step =96
 deltaT = 0.00041302329 s
 Time = 0.039650236 s
aleF sample: (0.99626176 2.0444605e-20 0 -0.037311376 1 0 0 0 1)
aleF sample: (0.99622247 2.0659535e-20 0 -0.037702105 1 0 0 0 1)
 Simulation completed = 1.3216745%

Time Step =97
 deltaT = 0.00041302329 s
 Time = 0.040063259 s
aleF sample: (0.99622247 2.0659535e-20 0 -0.037702105 1 0 0 0 1)
aleF sample: (0.99618317 2.0874455e-20 0 -0.03809277 1 0 0 0 1)
 Simulation completed = 1.335442%

Time Step =98
 deltaT = 0.00041302329 s
 Time = 0.040476282 s
aleF sample: (0.99618317 2.0874455e-20 0 -0.03809277 1 0 0 0 1)
aleF sample: (0.99614387 2.1089367e-20 0 -0.038483371 1 0 0 0 1)
 Simulation completed = 1.3492094%

Time Step =99
 deltaT = 0.00041302329 s
 Time = 0.040889305 s
aleF sample: (0.99614387 2.1089367e-20 0 -0.038483371 1 0 0 0 1)
aleF sample: (0.99610458 2.130427e-20 0 -0.038873907 1 0 0 0 1)
 Simulation completed = 1.3629768%

Time Step =100
 deltaT = 0.00041302329 s
 Time = 0.041302329 s
aleF sample: (0.99610458 2.130427e-20 0 -0.038873907 1 0 0 0 1)
aleF sample: (0.99606528 2.1519165e-20 0 -0.039264378 1 0 0 0 1)
 Simulation completed = 1.3767443%

Time Step =101
 deltaT = 0.00041302329 s
 Time = 0.041715352 s
aleF sample: (0.99606528 2.1519165e-20 0 -0.039264378 1 0 0 0 1)
aleF sample: (0.99602599 2.173405e-20 0 -0.039654782 1 0 0 0 1)
 Simulation completed = 1.3905117%

Time Step =102
 deltaT = 0.00041302329 s
 Time = 0.042128375 s
aleF sample: (0.99602599 2.173405e-20 0 -0.039654782 1 0 0 0 1)
aleF sample: (0.9959867 2.1948926e-20 0 -0.04004512 1 0 0 0 1)
 Simulation completed = 1.4042792%

Time Step =103
 deltaT = 0.00041302329 s
 Time = 0.042541399 s
aleF sample: (0.9959867 2.1948926e-20 0 -0.04004512 1 0 0 0 1)
aleF sample: (0.99594742 2.2163792e-20 0 -0.04043539 1 0 0 0 1)
 Simulation completed = 1.4180466%

Time Step =104
 deltaT = 0.00041302329 s
 Time = 0.042954422 s
aleF sample: (0.99594742 2.2163792e-20 0 -0.04043539 1 0 0 0 1)
aleF sample: (0.99590813 2.237865e-20 0 -0.040825593 1 0 0 0 1)
 Simulation completed = 1.4318141%

Time Step =105
 deltaT = 0.00041302329 s
 Time = 0.043367445 s
aleF sample: (0.99590813 2.237865e-20 0 -0.040825593 1 0 0 0 1)
aleF sample: (0.99586885 2.2593498e-20 0 -0.041215726 1 0 0 0 1)
 Simulation completed = 1.4455815%

Time Step =106
 deltaT = 0.00041302329 s
 Time = 0.043780468 s
aleF sample: (0.99586885 2.2593498e-20 0 -0.041215726 1 0 0 0 1)
aleF sample: (0.99582956 2.2808336e-20 0 -0.041605791 1 0 0 0 1)
 Simulation completed = 1.4593489%

Time Step =107
 deltaT = 0.00041302329 s
 Time = 0.044193492 s
aleF sample: (0.99582956 2.2808336e-20 0 -0.041605791 1 0 0 0 1)
aleF sample: (0.99579028 2.3023165e-20 0 -0.041995785 1 0 0 0 1)
 Simulation completed = 1.4731164%

Time Step =108
 deltaT = 0.00041302329 s
 Time = 0.044606515 s
aleF sample: (0.99579028 2.3023165e-20 0 -0.041995785 1 0 0 0 1)
aleF sample: (0.995751 2.3237984e-20 0 -0.042385708 1 0 0 0 1)
 Simulation completed = 1.4868838%

Time Step =109
 deltaT = 0.00041302329 s
 Time = 0.045019538 s
aleF sample: (0.995751 2.3237984e-20 0 -0.042385708 1 0 0 0 1)
aleF sample: (0.99571173 2.3452794e-20 0 -0.04277556 1 0 0 0 1)
 Simulation completed = 1.5006513%

Time Step =110
 deltaT = 0.00041302329 s
 Time = 0.045432562 s
aleF sample: (0.99571173 2.3452794e-20 0 -0.04277556 1 0 0 0 1)
aleF sample: (0.99567245 2.3667593e-20 0 -0.04316534 1 0 0 0 1)
 Simulation completed = 1.5144187%

Time Step =111
 deltaT = 0.00041302329 s
 Time = 0.045845585 s
aleF sample: (0.99567245 2.3667593e-20 0 -0.04316534 1 0 0 0 1)
aleF sample: (0.99563318 2.3882383e-20 0 -0.043555048 1 0 0 0 1)
 Simulation completed = 1.5281862%

Time Step =112
 deltaT = 0.00041302329 s
 Time = 0.046258608 s
aleF sample: (0.99563318 2.3882383e-20 0 -0.043555048 1 0 0 0 1)
aleF sample: (0.99559391 2.4097162e-20 0 -0.043944682 1 0 0 0 1)
 Simulation completed = 1.5419536%

Time Step =113
 deltaT = 0.00041302329 s
 Time = 0.046671631 s
aleF sample: (0.99559391 2.4097162e-20 0 -0.043944682 1 0 0 0 1)
aleF sample: (0.99555464 2.4311931e-20 0 -0.044334242 1 0 0 0 1)
 Simulation completed = 1.555721%

Time Step =114
 deltaT = 0.00041302329 s
 Time = 0.047084655 s
aleF sample: (0.99555464 2.4311931e-20 0 -0.044334242 1 0 0 0 1)
aleF sample: (0.99551537 2.4526691e-20 0 -0.044723727 1 0 0 0 1)
 Simulation completed = 1.5694885%

Time Step =115
 deltaT = 0.00041302329 s
 Time = 0.047497678 s
aleF sample: (0.99551537 2.4526691e-20 0 -0.044723727 1 0 0 0 1)
aleF sample: (0.9954761 2.4741439e-20 0 -0.045113137 1 0 0 0 1)
 Simulation completed = 1.5832559%

Time Step =116
 deltaT = 0.00041302329 s
 Time = 0.047910701 s
aleF sample: (0.9954761 2.4741439e-20 0 -0.045113137 1 0 0 0 1)
aleF sample: (0.99543684 2.4956178e-20 0 -0.045502471 1 0 0 0 1)
 Simulation completed = 1.5970234%

Time Step =117
 deltaT = 0.00041302329 s
 Time = 0.048323725 s
aleF sample: (0.99543684 2.4956178e-20 0 -0.045502471 1 0 0 0 1)
aleF sample: (0.99539757 2.5170906e-20 0 -0.045891729 1 0 0 0 1)
 Simulation completed = 1.6107908%

Time Step =118
 deltaT = 0.00041302329 s
 Time = 0.048736748 s
aleF sample: (0.99539757 2.5170906e-20 0 -0.045891729 1 0 0 0 1)
aleF sample: (0.99535831 2.5385623e-20 0 -0.046280909 1 0 0 0 1)
 Simulation completed = 1.6245583%

Time Step =119
 deltaT = 0.00041302329 s
 Time = 0.049149771 s
aleF sample: (0.99535831 2.5385623e-20 0 -0.046280909 1 0 0 0 1)
aleF sample: (0.99531906 2.560033e-20 0 -0.046670011 1 0 0 0 1)
 Simulation completed = 1.6383257%

Time Step =120
 deltaT = 0.00041302329 s
 Time = 0.049562794 s
aleF sample: (0.99531906 2.560033e-20 0 -0.046670011 1 0 0 0 1)
aleF sample: (0.9952798 2.5815025e-20 0 -0.047059035 1 0 0 0 1)
 Simulation completed = 1.6520931%

Time Step =121
 deltaT = 0.00041302329 s
 Time = 0.049975818 s
aleF sample: (0.9952798 2.5815025e-20 0 -0.047059035 1 0 0 0 1)
aleF sample: (0.99524054 2.602971e-20 0 -0.04744798 1 0 0 0 1)
 Simulation completed = 1.6658606%

Time Step =122
 deltaT = 0.00041302329 s
 Time = 0.050388841 s
aleF sample: (0.99524054 2.602971e-20 0 -0.04744798 1 0 0 0 1)
aleF sample: (0.99520129 2.6244384e-20 0 -0.047836844 1 0 0 0 1)
 Simulation completed = 1.679628%

Time Step =123
 deltaT = 0.00041302329 s
 Time = 0.050801864 s
aleF sample: (0.99520129 2.6244384e-20 0 -0.047836844 1 0 0 0 1)
aleF sample: (0.99516204 2.6459047e-20 0 -0.048225629 1 0 0 0 1)
 Simulation completed = 1.6933955%

Time Step =124
 deltaT = 0.00041302329 s
 Time = 0.051214888 s
aleF sample: (0.99516204 2.6459047e-20 0 -0.048225629 1 0 0 0 1)
aleF sample: (0.99512279 2.6673699e-20 0 -0.048614332 1 0 0 0 1)
 Simulation completed = 1.7071629%

Time Step =125
 deltaT = 0.00041302329 s
 Time = 0.051627911 s
aleF sample: (0.99512279 2.6673699e-20 0 -0.048614332 1 0 0 0 1)
aleF sample: (0.99508355 2.688834e-20 0 -0.049002953 1 0 0 0 1)
 Simulation completed = 1.7209304%

Time Step =126
 deltaT = 0.00041302329 s
 Time = 0.052040934 s
aleF sample: (0.99508355 2.688834e-20 0 -0.049002953 1 0 0 0 1)
aleF sample: (0.9950443 2.7102969e-20 0 -0.049391491 1 0 0 0 1)
 Simulation completed = 1.7346978%

Time Step =127
 deltaT = 0.00041302329 s
 Time = 0.052453957 s
aleF sample: (0.9950443 2.7102969e-20 0 -0.049391491 1 0 0 0 1)
aleF sample: (0.99500506 2.7317587e-20 0 -0.049779947 1 0 0 0 1)
 Simulation completed = 1.7484652%

Time Step =128
 deltaT = 0.00041302329 s
 Time = 0.052866981 s
aleF sample: (0.99500506 2.7317587e-20 0 -0.049779947 1 0 0 0 1)
aleF sample: (0.99496582 2.7532193e-20 0 -0.050168318 1 0 0 0 1)
 Simulation completed = 1.7622327%

Time Step =129
 deltaT = 0.00041302329 s
 Time = 0.053280004 s
aleF sample: (0.99496582 2.7532193e-20 0 -0.050168318 1 0 0 0 1)
aleF sample: (0.99492658 2.7746788e-20 0 -0.050556605 1 0 0 0 1)
 Simulation completed = 1.7760001%

Time Step =130
 deltaT = 0.00041302329 s
 Time = 0.053693027 s
aleF sample: (0.99492658 2.7746788e-20 0 -0.050556605 1 0 0 0 1)
aleF sample: (0.99488735 2.7961371e-20 0 -0.050944807 1 0 0 0 1)
 Simulation completed = 1.7897676%

Time Step =131
 deltaT = 0.00041302329 s
 Time = 0.054106051 s
aleF sample: (0.99488735 2.7961371e-20 0 -0.050944807 1 0 0 0 1)
aleF sample: (0.99484811 2.8175942e-20 0 -0.051332924 1 0 0 0 1)
 Simulation completed = 1.803535%

Time Step =132
 deltaT = 0.00041302329 s
 Time = 0.054519074 s
aleF sample: (0.99484811 2.8175942e-20 0 -0.051332924 1 0 0 0 1)
aleF sample: (0.99480888 2.8390502e-20 0 -0.051720954 1 0 0 0 1)
 Simulation completed = 1.8173025%

Time Step =133
 deltaT = 0.00041302329 s
 Time = 0.054932097 s
aleF sample: (0.99480888 2.8390502e-20 0 -0.051720954 1 0 0 0 1)
aleF sample: (0.99476965 2.8605049e-20 0 -0.052108896 1 0 0 0 1)
 Simulation completed = 1.8310699%

Time Step =134
 deltaT = 0.00041302329 s
 Time = 0.05534512 s
aleF sample: (0.99476965 2.8605049e-20 0 -0.052108896 1 0 0 0 1)
aleF sample: (0.99473042 2.8819585e-20 0 -0.052496751 1 0 0 0 1)
 Simulation completed = 1.8448373%

Time Step =135
 deltaT = 0.00041302329 s
 Time = 0.055758144 s
aleF sample: (0.99473042 2.8819585e-20 0 -0.052496751 1 0 0 0 1)
aleF sample: (0.9946912 2.9034108e-20 0 -0.052884518 1 0 0 0 1)
 Simulation completed = 1.8586048%

Time Step =136
 deltaT = 0.00041302329 s
 Time = 0.056171167 s
aleF sample: (0.9946912 2.9034108e-20 0 -0.052884518 1 0 0 0 1)
aleF sample: (0.99465198 2.9248619e-20 0 -0.053272196 1 0 0 0 1)
 Simulation completed = 1.8723722%

Time Step =137
 deltaT = 0.00041302329 s
 Time = 0.05658419 s
aleF sample: (0.99465198 2.9248619e-20 0 -0.053272196 1 0 0 0 1)
aleF sample: (0.99461276 2.9463118e-20 0 -0.053659783 1 0 0 0 1)
 Simulation completed = 1.8861397%

Time Step =138
 deltaT = 0.00041302329 s
 Time = 0.056997214 s
aleF sample: (0.99461276 2.9463118e-20 0 -0.053659783 1 0 0 0 1)
aleF sample: (0.99457354 2.9677605e-20 0 -0.054047281 1 0 0 0 1)
 Simulation completed = 1.8999071%

Time Step =139
 deltaT = 0.00041302329 s
 Time = 0.057410237 s
aleF sample: (0.99457354 2.9677605e-20 0 -0.054047281 1 0 0 0 1)
aleF sample: (0.99453432 2.9892078e-20 0 -0.054434688 1 0 0 0 1)
 Simulation completed = 1.9136746%

Time Step =140
 deltaT = 0.00041302329 s
 Time = 0.05782326 s
aleF sample: (0.99453432 2.9892078e-20 0 -0.054434688 1 0 0 0 1)
aleF sample: (0.99449511 3.010654e-20 0 -0.054822002 1 0 0 0 1)
 Simulation completed = 1.927442%

Time Step =141
 deltaT = 0.00041302329 s
 Time = 0.058236283 s
aleF sample: (0.99449511 3.010654e-20 0 -0.054822002 1 0 0 0 1)
aleF sample: (0.9944559 3.0320988e-20 0 -0.055209225 1 0 0 0 1)
 Simulation completed = 1.9412094%

Time Step =142
 deltaT = 0.00041302329 s
 Time = 0.058649307 s
aleF sample: (0.9944559 3.0320988e-20 0 -0.055209225 1 0 0 0 1)
aleF sample: (0.99441669 3.0535424e-20 0 -0.055596355 1 0 0 0 1)
 Simulation completed = 1.9549769%

Time Step =143
 deltaT = 0.00041302329 s
 Time = 0.05906233 s
aleF sample: (0.99441669 3.0535424e-20 0 -0.055596355 1 0 0 0 1)
aleF sample: (0.99437748 3.0749847e-20 0 -0.055983391 1 0 0 0 1)
 Simulation completed = 1.9687443%

Time Step =144
 deltaT = 0.00041302329 s
 Time = 0.059475353 s
aleF sample: (0.99437748 3.0749847e-20 0 -0.055983391 1 0 0 0 1)
aleF sample: (0.99433828 3.0964258e-20 0 -0.056370333 1 0 0 0 1)
 Simulation completed = 1.9825118%

Time Step =145
 deltaT = 0.00041302329 s
 Time = 0.059888377 s
aleF sample: (0.99433828 3.0964258e-20 0 -0.056370333 1 0 0 0 1)
aleF sample: (0.99429908 3.1178655e-20 0 -0.056757179 1 0 0 0 1)
 Simulation completed = 1.9962792%

Time Step =146
 deltaT = 0.00041302329 s
 Time = 0.0603014 s
aleF sample: (0.99429908 3.1178655e-20 0 -0.056757179 1 0 0 0 1)
aleF sample: (0.99425988 3.1393039e-20 0 -0.057143931 1 0 0 0 1)
 Simulation completed = 2.0100467%

Time Step =147
 deltaT = 0.00041302329 s
 Time = 0.060714423 s
aleF sample: (0.99425988 3.1393039e-20 0 -0.057143931 1 0 0 0 1)
aleF sample: (0.99422068 3.1607409e-20 0 -0.057530586 1 0 0 0 1)
 Simulation completed = 2.0238141%

Time Step =148
 deltaT = 0.00041302329 s
 Time = 0.061127446 s
aleF sample: (0.99422068 3.1607409e-20 0 -0.057530586 1 0 0 0 1)
aleF sample: (0.99418148 3.1821767e-20 0 -0.057917144 1 0 0 0 1)
 Simulation completed = 2.0375815%

Time Step =149
 deltaT = 0.00041302329 s
 Time = 0.06154047 s
aleF sample: (0.99418148 3.1821767e-20 0 -0.057917144 1 0 0 0 1)
aleF sample: (0.99414229 3.2036111e-20 0 -0.058303605 1 0 0 0 1)
 Simulation completed = 2.051349%

Time Step =150
 deltaT = 0.00041302329 s
 Time = 0.061953493 s
aleF sample: (0.99414229 3.2036111e-20 0 -0.058303605 1 0 0 0 1)
aleF sample: (0.9941031 3.2250441e-20 0 -0.058689968 1 0 0 0 1)
 Simulation completed = 2.0651164%

Time Step =151
 deltaT = 0.00041302329 s
 Time = 0.062366516 s
aleF sample: (0.9941031 3.2250441e-20 0 -0.058689968 1 0 0 0 1)
aleF sample: (0.99406391 3.2464758e-20 0 -0.059076231 1 0 0 0 1)
 Simulation completed = 2.0788839%

Time Step =152
 deltaT = 0.00041302329 s
 Time = 0.06277954 s
aleF sample: (0.99406391 3.2464758e-20 0 -0.059076231 1 0 0 0 1)
aleF sample: (0.99402473 3.2679062e-20 0 -0.059462396 1 0 0 0 1)
 Simulation completed = 2.0926513%

Time Step =153
 deltaT = 0.00041302329 s
 Time = 0.063192563 s
aleF sample: (0.99402473 3.2679062e-20 0 -0.059462396 1 0 0 0 1)
aleF sample: (0.99398555 3.2893351e-20 0 -0.05984846 1 0 0 0 1)
 Simulation completed = 2.1064188%

Time Step =154
 deltaT = 0.00041302329 s
 Time = 0.063605586 s
aleF sample: (0.99398555 3.2893351e-20 0 -0.05984846 1 0 0 0 1)
aleF sample: (0.99394637 3.3107627e-20 0 -0.060234423 1 0 0 0 1)
 Simulation completed = 2.1201862%

Time Step =155
 deltaT = 0.00041302329 s
 Time = 0.064018609 s
aleF sample: (0.99394637 3.3107627e-20 0 -0.060234423 1 0 0 0 1)
aleF sample: (0.99390719 3.3321889e-20 0 -0.060620285 1 0 0 0 1)
 Simulation completed = 2.1339536%

Time Step =156
 deltaT = 0.00041302329 s
 Time = 0.064431633 s
aleF sample: (0.99390719 3.3321889e-20 0 -0.060620285 1 0 0 0 1)
aleF sample: (0.99386802 3.3536137e-20 0 -0.061006045 1 0 0 0 1)
 Simulation completed = 2.1477211%

Time Step =157
 deltaT = 0.00041302329 s
 Time = 0.064844656 s
aleF sample: (0.99386802 3.3536137e-20 0 -0.061006045 1 0 0 0 1)
aleF sample: (0.99382884 3.375037e-20 0 -0.061391703 1 0 0 0 1)
 Simulation completed = 2.1614885%

Time Step =158
 deltaT = 0.00041302329 s
 Time = 0.065257679 s
aleF sample: (0.99382884 3.375037e-20 0 -0.061391703 1 0 0 0 1)
aleF sample: (0.99378968 3.396459e-20 0 -0.061777256 1 0 0 0 1)
 Simulation completed = 2.175256%

Time Step =159
 deltaT = 0.00041302329 s
 Time = 0.065670703 s
aleF sample: (0.99378968 3.396459e-20 0 -0.061777256 1 0 0 0 1)
aleF sample: (0.99375051 3.4178795e-20 0 -0.062162706 1 0 0 0 1)
 Simulation completed = 2.1890234%

Time Step =160
 deltaT = 0.00041302329 s
 Time = 0.066083726 s
aleF sample: (0.99375051 3.4178795e-20 0 -0.062162706 1 0 0 0 1)
aleF sample: (0.99371134 3.4392986e-20 0 -0.062548052 1 0 0 0 1)
 Simulation completed = 2.2027909%

Time Step =161
 deltaT = 0.00041302329 s
 Time = 0.066496749 s
aleF sample: (0.99371134 3.4392986e-20 0 -0.062548052 1 0 0 0 1)
aleF sample: (0.99367218 3.4607162e-20 0 -0.062933291 1 0 0 0 1)
 Simulation completed = 2.2165583%

Time Step =162
 deltaT = 0.00041302329 s
 Time = 0.066909772 s
aleF sample: (0.99367218 3.4607162e-20 0 -0.062933291 1 0 0 0 1)
aleF sample: (0.99363302 3.4821323e-20 0 -0.063318425 1 0 0 0 1)
 Simulation completed = 2.2303257%

Time Step =163
 deltaT = 0.00041302329 s
 Time = 0.067322796 s
aleF sample: (0.99363302 3.4821323e-20 0 -0.063318425 1 0 0 0 1)
aleF sample: (0.99359387 3.5035471e-20 0 -0.063703453 1 0 0 0 1)
 Simulation completed = 2.2440932%

Time Step =164
 deltaT = 0.00041302329 s
 Time = 0.067735819 s
aleF sample: (0.99359387 3.5035471e-20 0 -0.063703453 1 0 0 0 1)
aleF sample: (0.99355471 3.5249603e-20 0 -0.064088373 1 0 0 0 1)
 Simulation completed = 2.2578606%

Time Step =165
 deltaT = 0.00041302329 s
 Time = 0.068148842 s
aleF sample: (0.99355471 3.5249603e-20 0 -0.064088373 1 0 0 0 1)
aleF sample: (0.99351556 3.546372e-20 0 -0.064473185 1 0 0 0 1)
 Simulation completed = 2.2716281%

Time Step =166
 deltaT = 0.00041302329 s
 Time = 0.068561866 s
aleF sample: (0.99351556 3.546372e-20 0 -0.064473185 1 0 0 0 1)
aleF sample: (0.99347642 3.5677823e-20 0 -0.064857889 1 0 0 0 1)
 Simulation completed = 2.2853955%

Time Step =167
 deltaT = 0.00041302329 s
 Time = 0.068974889 s
aleF sample: (0.99347642 3.5677823e-20 0 -0.064857889 1 0 0 0 1)
aleF sample: (0.99343727 3.589191e-20 0 -0.065242483 1 0 0 0 1)
 Simulation completed = 2.299163%

Time Step =168
 deltaT = 0.00041302329 s
 Time = 0.069387912 s
aleF sample: (0.99343727 3.589191e-20 0 -0.065242483 1 0 0 0 1)
aleF sample: (0.99339813 3.6105983e-20 0 -0.065626968 1 0 0 0 1)
 Simulation completed = 2.3129304%

Time Step =169
 deltaT = 0.00041302329 s
 Time = 0.069800935 s
aleF sample: (0.99339813 3.6105983e-20 0 -0.065626968 1 0 0 0 1)
aleF sample: (0.99335899 3.632004e-20 0 -0.066011342 1 0 0 0 1)
 Simulation completed = 2.3266978%

Time Step =170
 deltaT = 0.00041302329 s
 Time = 0.070213959 s
aleF sample: (0.99335899 3.632004e-20 0 -0.066011342 1 0 0 0 1)
aleF sample: (0.99331985 3.6534082e-20 0 -0.066395605 1 0 0 0 1)
 Simulation completed = 2.3404653%

Time Step =171
 deltaT = 0.00041302329 s
 Time = 0.070626982 s
aleF sample: (0.99331985 3.6534082e-20 0 -0.066395605 1 0 0 0 1)
aleF sample: (0.99328072 3.6748109e-20 0 -0.066779756 1 0 0 0 1)
 Simulation completed = 2.3542327%

Time Step =172
 deltaT = 0.00041302329 s
 Time = 0.071040005 s
aleF sample: (0.99328072 3.6748109e-20 0 -0.066779756 1 0 0 0 1)
aleF sample: (0.99324159 3.696212e-20 0 -0.067163795 1 0 0 0 1)
 Simulation completed = 2.3680002%

Time Step =173
 deltaT = 0.00041302329 s
 Time = 0.071453029 s
aleF sample: (0.99324159 3.696212e-20 0 -0.067163795 1 0 0 0 1)
aleF sample: (0.99320246 3.7176115e-20 0 -0.06754772 1 0 0 0 1)
 Simulation completed = 2.3817676%

Time Step =174
 deltaT = 0.00041302329 s
 Time = 0.071866052 s
aleF sample: (0.99320246 3.7176115e-20 0 -0.06754772 1 0 0 0 1)
aleF sample: (0.99316333 3.7390095e-20 0 -0.067931532 1 0 0 0 1)
 Simulation completed = 2.3955351%

Time Step =175
 deltaT = 0.00041302329 s
 Time = 0.072279075 s
aleF sample: (0.99316333 3.7390095e-20 0 -0.067931532 1 0 0 0 1)
aleF sample: (0.99312421 3.7604059e-20 0 -0.06831523 1 0 0 0 1)
 Simulation completed = 2.4093025%

Time Step =176
 deltaT = 0.00041302329 s
 Time = 0.072692098 s
aleF sample: (0.99312421 3.7604059e-20 0 -0.06831523 1 0 0 0 1)
aleF sample: (0.99308509 3.7818008e-20 0 -0.068698812 1 0 0 0 1)
 Simulation completed = 2.4230699%

Time Step =177
 deltaT = 0.00041302329 s
 Time = 0.073105122 s
aleF sample: (0.99308509 3.7818008e-20 0 -0.068698812 1 0 0 0 1)
aleF sample: (0.99304597 3.803194e-20 0 -0.069082279 1 0 0 0 1)
 Simulation completed = 2.4368374%

Time Step =178
 deltaT = 0.00041302329 s
 Time = 0.073518145 s
aleF sample: (0.99304597 3.803194e-20 0 -0.069082279 1 0 0 0 1)
aleF sample: (0.99300686 3.8245856e-20 0 -0.06946563 1 0 0 0 1)
 Simulation completed = 2.4506048%

Time Step =179
 deltaT = 0.00041302329 s
 Time = 0.073931168 s
aleF sample: (0.99300686 3.8245856e-20 0 -0.06946563 1 0 0 0 1)
aleF sample: (0.99296775 3.8459757e-20 0 -0.069848864 1 0 0 0 1)
 Simulation completed = 2.4643723%

Time Step =180
 deltaT = 0.00041302329 s
 Time = 0.074344192 s
aleF sample: (0.99296775 3.8459757e-20 0 -0.069848864 1 0 0 0 1)
aleF sample: (0.99292864 3.8673641e-20 0 -0.07023198 1 0 0 0 1)
 Simulation completed = 2.4781397%

Time Step =181
 deltaT = 0.00041302329 s
 Time = 0.074757215 s
aleF sample: (0.99292864 3.8673641e-20 0 -0.07023198 1 0 0 0 1)
aleF sample: (0.99288953 3.8887509e-20 0 -0.070614977 1 0 0 0 1)
 Simulation completed = 2.4919072%

Time Step =182
 deltaT = 0.00041302329 s
 Time = 0.075170238 s
aleF sample: (0.99288953 3.8887509e-20 0 -0.070614977 1 0 0 0 1)
aleF sample: (0.99285043 3.910136e-20 0 -0.070997856 1 0 0 0 1)
 Simulation completed = 2.5056746%

Time Step =183
 deltaT = 0.00041302329 s
 Time = 0.075583261 s
aleF sample: (0.99285043 3.910136e-20 0 -0.070997856 1 0 0 0 1)
aleF sample: (0.99281133 3.9315195e-20 0 -0.071380616 1 0 0 0 1)
 Simulation completed = 2.519442%

Time Step =184
 deltaT = 0.00041302329 s
 Time = 0.075996285 s
aleF sample: (0.99281133 3.9315195e-20 0 -0.071380616 1 0 0 0 1)
aleF sample: (0.99277224 3.9529013e-20 0 -0.071763255 1 0 0 0 1)
 Simulation completed = 2.5332095%

Time Step =185
 deltaT = 0.00041302329 s
 Time = 0.076409308 s
aleF sample: (0.99277224 3.9529013e-20 0 -0.071763255 1 0 0 0 1)
aleF sample: (0.99273314 3.9742815e-20 0 -0.072145773 1 0 0 0 1)
 Simulation completed = 2.5469769%

Time Step =186
 deltaT = 0.00041302329 s
 Time = 0.076822331 s
aleF sample: (0.99273314 3.9742815e-20 0 -0.072145773 1 0 0 0 1)
aleF sample: (0.99269405 3.99566e-20 0 -0.07252817 1 0 0 0 1)
 Simulation completed = 2.5607444%

Time Step =187
 deltaT = 0.00041302329 s
 Time = 0.077235355 s
aleF sample: (0.99269405 3.99566e-20 0 -0.07252817 1 0 0 0 1)
aleF sample: (0.99265497 4.0170369e-20 0 -0.072910445 1 0 0 0 1)
 Simulation completed = 2.5745118%

Time Step =188
 deltaT = 0.00041302329 s
 Time = 0.077648378 s
aleF sample: (0.99265497 4.0170369e-20 0 -0.072910445 1 0 0 0 1)
aleF sample: (0.99261588 4.038412e-20 0 -0.073292597 1 0 0 0 1)
 Simulation completed = 2.5882793%

Time Step =189
 deltaT = 0.00041302329 s
 Time = 0.078061401 s
aleF sample: (0.99261588 4.038412e-20 0 -0.073292597 1 0 0 0 1)
aleF sample: (0.9925768 4.0597854e-20 0 -0.073674626 1 0 0 0 1)
 Simulation completed = 2.6020467%

Time Step =190
 deltaT = 0.00041302329 s
 Time = 0.078474424 s
aleF sample: (0.9925768 4.0597854e-20 0 -0.073674626 1 0 0 0 1)
aleF sample: (0.99253772 4.0811572e-20 0 -0.07405653 1 0 0 0 1)
 Simulation completed = 2.6158141%

Time Step =191
 deltaT = 0.00041302329 s
 Time = 0.078887448 s
aleF sample: (0.99253772 4.0811572e-20 0 -0.07405653 1 0 0 0 1)
aleF sample: (0.99249865 4.1025272e-20 0 -0.07443831 1 0 0 0 1)
 Simulation completed = 2.6295816%

Time Step =192
 deltaT = 0.00041302329 s
 Time = 0.079300471 s
aleF sample: (0.99249865 4.1025272e-20 0 -0.07443831 1 0 0 0 1)
aleF sample: (0.99245958 4.1238955e-20 0 -0.074819965 1 0 0 0 1)
 Simulation completed = 2.643349%

Time Step =193
 deltaT = 0.00041302329 s
 Time = 0.079713494 s
aleF sample: (0.99245958 4.1238955e-20 0 -0.074819965 1 0 0 0 1)
aleF sample: (0.99242051 4.145262e-20 0 -0.075201493 1 0 0 0 1)
 Simulation completed = 2.6571165%

Time Step =194
 deltaT = 0.00041302329 s
 Time = 0.080126518 s
aleF sample: (0.99242051 4.145262e-20 0 -0.075201493 1 0 0 0 1)
aleF sample: (0.99238145 4.1666268e-20 0 -0.075582895 1 0 0 0 1)
 Simulation completed = 2.6708839%

Time Step =195
 deltaT = 0.00041302329 s
 Time = 0.080539541 s
aleF sample: (0.99238145 4.1666268e-20 0 -0.075582895 1 0 0 0 1)
aleF sample: (0.99234238 4.1879899e-20 0 -0.07596417 1 0 0 0 1)
 Simulation completed = 2.6846514%

Time Step =196
 deltaT = 0.00041302329 s
 Time = 0.080952564 s
aleF sample: (0.99234238 4.1879899e-20 0 -0.07596417 1 0 0 0 1)
aleF sample: (0.99230333 4.2093511e-20 0 -0.076345317 1 0 0 0 1)
 Simulation completed = 2.6984188%

Time Step =197
 deltaT = 0.00041302329 s
 Time = 0.081365587 s
aleF sample: (0.99230333 4.2093511e-20 0 -0.076345317 1 0 0 0 1)
aleF sample: (0.99226427 4.2307107e-20 0 -0.076726335 1 0 0 0 1)
 Simulation completed = 2.7121862%

Time Step =198
 deltaT = 0.00041302329 s
 Time = 0.081778611 s
aleF sample: (0.99226427 4.2307107e-20 0 -0.076726335 1 0 0 0 1)
aleF sample: (0.99222522 4.2520684e-20 0 -0.077107224 1 0 0 0 1)
 Simulation completed = 2.7259537%

Time Step =199
 deltaT = 0.00041302329 s
 Time = 0.082191634 s
aleF sample: (0.99222522 4.2520684e-20 0 -0.077107224 1 0 0 0 1)
aleF sample: (0.99218617 4.2734243e-20 0 -0.077487983 1 0 0 0 1)
 Simulation completed = 2.7397211%

Time Step =200
 deltaT = 0.00041302329 s
 Time = 0.082604657 s
aleF sample: (0.99218617 4.2734243e-20 0 -0.077487983 1 0 0 0 1)
aleF sample: (0.99214712 4.2947785e-20 0 -0.077868612 1 0 0 0 1)
 Simulation completed = 2.7534886%

Time Step =201
 deltaT = 0.00041302329 s
 Time = 0.083017681 s
aleF sample: (0.99214712 4.2947785e-20 0 -0.077868612 1 0 0 0 1)
aleF sample: (0.99210808 4.3161308e-20 0 -0.07824911 1 0 0 0 1)
 Simulation completed = 2.767256%

Time Step =202
 deltaT = 0.00041302329 s
 Time = 0.083430704 s
aleF sample: (0.99210808 4.3161308e-20 0 -0.07824911 1 0 0 0 1)
aleF sample: (0.99206904 4.3374813e-20 0 -0.078629476 1 0 0 0 1)
 Simulation completed = 2.7810235%

Time Step =203
 deltaT = 0.00041302329 s
 Time = 0.083843727 s
aleF sample: (0.99206904 4.3374813e-20 0 -0.078629476 1 0 0 0 1)
aleF sample: (0.99203001 4.35883e-20 0 -0.07900971 1 0 0 0 1)
 Simulation completed = 2.7947909%

Time Step =204
 deltaT = 0.00041302329 s
 Time = 0.08425675 s
aleF sample: (0.99203001 4.35883e-20 0 -0.07900971 1 0 0 0 1)
aleF sample: (0.99199098 4.3801769e-20 0 -0.07938981 1 0 0 0 1)
 Simulation completed = 2.8085583%

Time Step =205
 deltaT = 0.00041302329 s
 Time = 0.084669774 s
aleF sample: (0.99199098 4.3801769e-20 0 -0.07938981 1 0 0 0 1)
aleF sample: (0.99195195 4.4015219e-20 0 -0.079769777 1 0 0 0 1)
 Simulation completed = 2.8223258%

Time Step =206
 deltaT = 0.00041302329 s
 Time = 0.085082797 s
aleF sample: (0.99195195 4.4015219e-20 0 -0.079769777 1 0 0 0 1)
aleF sample: (0.99191292 4.4228651e-20 0 -0.08014961 1 0 0 0 1)
 Simulation completed = 2.8360932%

Time Step =207
 deltaT = 0.00041302329 s
 Time = 0.08549582 s
aleF sample: (0.99191292 4.4228651e-20 0 -0.08014961 1 0 0 0 1)
aleF sample: (0.9918739 4.4442064e-20 0 -0.080529307 1 0 0 0 1)
 Simulation completed = 2.8498607%

Time Step =208
 deltaT = 0.00041302329 s
 Time = 0.085908844 s
aleF sample: (0.9918739 4.4442064e-20 0 -0.080529307 1 0 0 0 1)
aleF sample: (0.99183488 4.4655458e-20 0 -0.08090887 1 0 0 0 1)
 Simulation completed = 2.8636281%

Time Step =209
 deltaT = 0.00041302329 s
 Time = 0.086321867 s
aleF sample: (0.99183488 4.4655458e-20 0 -0.08090887 1 0 0 0 1)
aleF sample: (0.99179587 4.4868834e-20 0 -0.081288295 1 0 0 0 1)
 Simulation completed = 2.8773956%

Time Step =210
 deltaT = 0.00041302329 s
 Time = 0.08673489 s
aleF sample: (0.99179587 4.4868834e-20 0 -0.081288295 1 0 0 0 1)
aleF sample: (0.99175685 4.508219e-20 0 -0.081667584 1 0 0 0 1)
 Simulation completed = 2.891163%

Time Step =211
 deltaT = 0.00041302329 s
 Time = 0.087147913 s
aleF sample: (0.99175685 4.508219e-20 0 -0.081667584 1 0 0 0 1)
aleF sample: (0.99171785 4.5295528e-20 0 -0.082046736 1 0 0 0 1)
 Simulation completed = 2.9049304%

Time Step =212
 deltaT = 0.00041302329 s
 Time = 0.087560937 s
aleF sample: (0.99171785 4.5295528e-20 0 -0.082046736 1 0 0 0 1)
aleF sample: (0.99167884 4.5508847e-20 0 -0.082425749 1 0 0 0 1)
 Simulation completed = 2.9186979%

Time Step =213
 deltaT = 0.00041302329 s
 Time = 0.08797396 s
aleF sample: (0.99167884 4.5508847e-20 0 -0.082425749 1 0 0 0 1)
aleF sample: (0.99163984 4.5722146e-20 0 -0.082804624 1 0 0 0 1)
 Simulation completed = 2.9324653%

Time Step =214
 deltaT = 0.00041302329 s
 Time = 0.088386983 s
aleF sample: (0.99163984 4.5722146e-20 0 -0.082804624 1 0 0 0 1)
aleF sample: (0.99160084 4.5935426e-20 0 -0.083183359 1 0 0 0 1)
 Simulation completed = 2.9462328%

Time Step =215
 deltaT = 0.00041302329 s
 Time = 0.088800007 s
aleF sample: (0.99160084 4.5935426e-20 0 -0.083183359 1 0 0 0 1)
aleF sample: (0.99156185 4.6148687e-20 0 -0.083561954 1 0 0 0 1)
 Simulation completed = 2.9600002%

Time Step =216
 deltaT = 0.00041302329 s
 Time = 0.08921303 s
aleF sample: (0.99156185 4.6148687e-20 0 -0.083561954 1 0 0 0 1)
aleF sample: (0.99152286 4.6361928e-20 0 -0.083940409 1 0 0 0 1)
 Simulation completed = 2.9737677%

Time Step =217
 deltaT = 0.00041302329 s
 Time = 0.089626053 s
aleF sample: (0.99152286 4.6361928e-20 0 -0.083940409 1 0 0 0 1)
aleF sample: (0.99148387 4.657515e-20 0 -0.084318722 1 0 0 0 1)
 Simulation completed = 2.9875351%

Time Step =218
 deltaT = 0.00041302329 s
 Time = 0.090039076 s
aleF sample: (0.99148387 4.657515e-20 0 -0.084318722 1 0 0 0 1)
aleF sample: (0.99144489 4.6788353e-20 0 -0.084696893 1 0 0 0 1)
 Simulation completed = 3.0013025%

Time Step =219
 deltaT = 0.00041302329 s
 Time = 0.0904521 s
aleF sample: (0.99144489 4.6788353e-20 0 -0.084696893 1 0 0 0 1)
aleF sample: (0.99140591 4.7001535e-20 0 -0.085074922 1 0 0 0 1)
 Simulation completed = 3.01507%

Time Step =220
 deltaT = 0.00041302329 s
 Time = 0.090865123 s
aleF sample: (0.99140591 4.7001535e-20 0 -0.085074922 1 0 0 0 1)
aleF sample: (0.99136693 4.7214698e-20 0 -0.085452807 1 0 0 0 1)
 Simulation completed = 3.0288374%

Time Step =221
 deltaT = 0.00041302329 s
 Time = 0.091278146 s
aleF sample: (0.99136693 4.7214698e-20 0 -0.085452807 1 0 0 0 1)
aleF sample: (0.99132796 4.7427841e-20 0 -0.085830548 1 0 0 0 1)
 Simulation completed = 3.0426049%

Time Step =222
 deltaT = 0.00041302329 s
 Time = 0.09169117 s
aleF sample: (0.99132796 4.7427841e-20 0 -0.085830548 1 0 0 0 1)
aleF sample: (0.99128899 4.7640964e-20 0 -0.086208145 1 0 0 0 1)
 Simulation completed = 3.0563723%

Time Step =223
 deltaT = 0.00041302329 s
 Time = 0.092104193 s
aleF sample: (0.99128899 4.7640964e-20 0 -0.086208145 1 0 0 0 1)
aleF sample: (0.99125003 4.7854067e-20 0 -0.086585597 1 0 0 0 1)
 Simulation completed = 3.0701398%

Time Step =224
 deltaT = 0.00041302329 s
 Time = 0.092517216 s
aleF sample: (0.99125003 4.7854067e-20 0 -0.086585597 1 0 0 0 1)
aleF sample: (0.99121106 4.806715e-20 0 -0.086962903 1 0 0 0 1)
 Simulation completed = 3.0839072%

Time Step =225
 deltaT = 0.00041302329 s
 Time = 0.092930239 s
aleF sample: (0.99121106 4.806715e-20 0 -0.086962903 1 0 0 0 1)
aleF sample: (0.99117211 4.8280212e-20 0 -0.087340063 1 0 0 0 1)
 Simulation completed = 3.0976746%

Time Step =226
 deltaT = 0.00041302329 s
 Time = 0.093343263 s
aleF sample: (0.99117211 4.8280212e-20 0 -0.087340063 1 0 0 0 1)
aleF sample: (0.99113315 4.8493255e-20 0 -0.087717075 1 0 0 0 1)
 Simulation completed = 3.1114421%

Time Step =227
 deltaT = 0.00041302329 s
 Time = 0.093756286 s
aleF sample: (0.99113315 4.8493255e-20 0 -0.087717075 1 0 0 0 1)
aleF sample: (0.9910942 4.8706277e-20 0 -0.08809394 1 0 0 0 1)
 Simulation completed = 3.1252095%

Time Step =228
 deltaT = 0.00041302329 s
 Time = 0.094169309 s
aleF sample: (0.9910942 4.8706277e-20 0 -0.08809394 1 0 0 0 1)
aleF sample: (0.99105525 4.8919278e-20 0 -0.088470657 1 0 0 0 1)
 Simulation completed = 3.138977%

Time Step =229
 deltaT = 0.00041302329 s
 Time = 0.094582333 s
aleF sample: (0.99105525 4.8919278e-20 0 -0.088470657 1 0 0 0 1)
aleF sample: (0.99101631 4.9132259e-20 0 -0.088847224 1 0 0 0 1)
 Simulation completed = 3.1527444%

Time Step =230
 deltaT = 0.00041302329 s
 Time = 0.094995356 s
aleF sample: (0.99101631 4.9132259e-20 0 -0.088847224 1 0 0 0 1)
aleF sample: (0.99097737 4.9345219e-20 0 -0.089223642 1 0 0 0 1)
 Simulation completed = 3.1665119%

Time Step =231
 deltaT = 0.00041302329 s
 Time = 0.095408379 s
aleF sample: (0.99097737 4.9345219e-20 0 -0.089223642 1 0 0 0 1)
aleF sample: (0.99093844 4.9558158e-20 0 -0.08959991 1 0 0 0 1)
 Simulation completed = 3.1802793%

Time Step =232
 deltaT = 0.00041302329 s
 Time = 0.095821402 s
aleF sample: (0.99093844 4.9558158e-20 0 -0.08959991 1 0 0 0 1)
aleF sample: (0.99089951 4.9771076e-20 0 -0.089976027 1 0 0 0 1)
 Simulation completed = 3.1940467%

Time Step =233
 deltaT = 0.00041302329 s
 Time = 0.096234426 s
aleF sample: (0.99089951 4.9771076e-20 0 -0.089976027 1 0 0 0 1)
aleF sample: (0.99086058 4.9983974e-20 0 -0.090351993 1 0 0 0 1)
 Simulation completed = 3.2078142%

Time Step =234
 deltaT = 0.00041302329 s
 Time = 0.096647449 s
aleF sample: (0.99086058 4.9983974e-20 0 -0.090351993 1 0 0 0 1)
aleF sample: (0.99082165 5.019685e-20 0 -0.090727806 1 0 0 0 1)
 Simulation completed = 3.2215816%

Time Step =235
 deltaT = 0.00041302329 s
 Time = 0.097060472 s
aleF sample: (0.99082165 5.019685e-20 0 -0.090727806 1 0 0 0 1)
aleF sample: (0.99078273 5.0409706e-20 0 -0.091103466 1 0 0 0 1)
 Simulation completed = 3.2353491%

Time Step =236
 deltaT = 0.00041302329 s
 Time = 0.097473496 s
aleF sample: (0.99078273 5.0409706e-20 0 -0.091103466 1 0 0 0 1)
aleF sample: (0.99074382 5.062254e-20 0 -0.091478974 1 0 0 0 1)
 Simulation completed = 3.2491165%

Time Step =237
 deltaT = 0.00041302329 s
 Time = 0.097886519 s
aleF sample: (0.99074382 5.062254e-20 0 -0.091478974 1 0 0 0 1)
aleF sample: (0.99070491 5.0835353e-20 0 -0.091854327 1 0 0 0 1)
 Simulation completed = 3.262884%

Time Step =238
 deltaT = 0.00041302329 s
 Time = 0.098299542 s
aleF sample: (0.99070491 5.0835353e-20 0 -0.091854327 1 0 0 0 1)
aleF sample: (0.990666 5.1048144e-20 0 -0.092229525 1 0 0 0 1)
 Simulation completed = 3.2766514%

Time Step =239
 deltaT = 0.00041302329 s
 Time = 0.098712566 s
aleF sample: (0.990666 5.1048144e-20 0 -0.092229525 1 0 0 0 1)
aleF sample: (0.99062709 5.1260914e-20 0 -0.092604569 1 0 0 0 1)
 Simulation completed = 3.2904189%

Time Step =240
 deltaT = 0.00041302329 s
 Time = 0.099125589 s
aleF sample: (0.99062709 5.1260914e-20 0 -0.092604569 1 0 0 0 1)
aleF sample: (0.99058819 5.1473662e-20 0 -0.092979456 1 0 0 0 1)
 Simulation completed = 3.3041863%

Time Step =241
 deltaT = 0.00041302329 s
 Time = 0.099538612 s
aleF sample: (0.99058819 5.1473662e-20 0 -0.092979456 1 0 0 0 1)
aleF sample: (0.9905493 5.1686389e-20 0 -0.093354187 1 0 0 0 1)
 Simulation completed = 3.3179537%

Time Step =242
 deltaT = 0.00041302329 s
 Time = 0.099951635 s
aleF sample: (0.9905493 5.1686389e-20 0 -0.093354187 1 0 0 0 1)
aleF sample: (0.9905104 5.1899094e-20 0 -0.09372876 1 0 0 0 1)
 Simulation completed = 3.3317212%

Time Step =243
 deltaT = 0.00041302329 s
 Time = 0.10036466 s
aleF sample: (0.9905104 5.1899094e-20 0 -0.09372876 1 0 0 0 1)
aleF sample: (0.99047152 5.2111777e-20 0 -0.094103176 1 0 0 0 1)
 Simulation completed = 3.3454886%

Time Step =244
 deltaT = 0.00041302329 s
 Time = 0.10077768 s
aleF sample: (0.99047152 5.2111777e-20 0 -0.094103176 1 0 0 0 1)
aleF sample: (0.99043263 5.2324438e-20 0 -0.094477434 1 0 0 0 1)
 Simulation completed = 3.3592561%

Time Step =245
 deltaT = 0.00041302329 s
 Time = 0.10119071 s
aleF sample: (0.99043263 5.2324438e-20 0 -0.094477434 1 0 0 0 1)
aleF sample: (0.99039375 5.2537077e-20 0 -0.094851532 1 0 0 0 1)
 Simulation completed = 3.3730235%

Time Step =246
 deltaT = 0.00041302329 s
 Time = 0.10160373 s
aleF sample: (0.99039375 5.2537077e-20 0 -0.094851532 1 0 0 0 1)
aleF sample: (0.99035487 5.2749694e-20 0 -0.095225471 1 0 0 0 1)
 Simulation completed = 3.386791%

Time Step =247
 deltaT = 0.00041302329 s
 Time = 0.10201675 s
aleF sample: (0.99035487 5.2749694e-20 0 -0.095225471 1 0 0 0 1)
aleF sample: (0.990316 5.2962289e-20 0 -0.095599249 1 0 0 0 1)
 Simulation completed = 3.4005584%

Time Step =248
 deltaT = 0.00041302329 s
 Time = 0.10242978 s
aleF sample: (0.990316 5.2962289e-20 0 -0.095599249 1 0 0 0 1)
aleF sample: (0.99027713 5.3174862e-20 0 -0.095972866 1 0 0 0 1)
 Simulation completed = 3.4143258%

Time Step =249
 deltaT = 0.00041302329 s
 Time = 0.1028428 s
aleF sample: (0.99027713 5.3174862e-20 0 -0.095972866 1 0 0 0 1)
aleF sample: (0.99023827 5.3387412e-20 0 -0.096346322 1 0 0 0 1)
 Simulation completed = 3.4280933%

Time Step =250
 deltaT = 0.00041302329 s
 Time = 0.10325582 s
aleF sample: (0.99023827 5.3387412e-20 0 -0.096346322 1 0 0 0 1)
aleF sample: (0.99019941 5.3599939e-20 0 -0.096719616 1 0 0 0 1)
 Simulation completed = 3.4418607%

Time Step =251
 deltaT = 0.00041302329 s
 Time = 0.10366884 s
aleF sample: (0.99019941 5.3599939e-20 0 -0.096719616 1 0 0 0 1)
aleF sample: (0.99016055 5.3812444e-20 0 -0.097092746 1 0 0 0 1)
 Simulation completed = 3.4556282%

Time Step =252
 deltaT = 0.00041302329 s
 Time = 0.10408187 s
aleF sample: (0.99016055 5.3812444e-20 0 -0.097092746 1 0 0 0 1)
aleF sample: (0.9901217 5.4024927e-20 0 -0.097465713 1 0 0 0 1)
 Simulation completed = 3.4693956%

Time Step =253
 deltaT = 0.00041302329 s
 Time = 0.10449489 s
aleF sample: (0.9901217 5.4024927e-20 0 -0.097465713 1 0 0 0 1)
aleF sample: (0.99008285 5.4237387e-20 0 -0.097838517 1 0 0 0 1)
 Simulation completed = 3.4831631%

Time Step =254
 deltaT = 0.00041302329 s
 Time = 0.10490791 s
aleF sample: (0.99008285 5.4237387e-20 0 -0.097838517 1 0 0 0 1)
aleF sample: (0.99004401 5.4449823e-20 0 -0.098211155 1 0 0 0 1)
 Simulation completed = 3.4969305%

Time Step =255
 deltaT = 0.00041302329 s
 Time = 0.10532094 s
aleF sample: (0.99004401 5.4449823e-20 0 -0.098211155 1 0 0 0 1)
aleF sample: (0.99000517 5.4662237e-20 0 -0.098583628 1 0 0 0 1)
 Simulation completed = 3.5106979%

Time Step =256
 deltaT = 0.00041302329 s
 Time = 0.10573396 s
aleF sample: (0.99000517 5.4662237e-20 0 -0.098583628 1 0 0 0 1)
aleF sample: (0.98996634 5.4874628e-20 0 -0.098955935 1 0 0 0 1)
 Simulation completed = 3.5244654%

Time Step =257
 deltaT = 0.00041302329 s
 Time = 0.10614698 s
aleF sample: (0.98996634 5.4874628e-20 0 -0.098955935 1 0 0 0 1)
aleF sample: (0.98992751 5.5086996e-20 0 -0.099328076 1 0 0 0 1)
 Simulation completed = 3.5382328%

Time Step =258
 deltaT = 0.00041302329 s
 Time = 0.10656001 s
aleF sample: (0.98992751 5.5086996e-20 0 -0.099328076 1 0 0 0 1)
aleF sample: (0.98988868 5.5299341e-20 0 -0.099700049 1 0 0 0 1)
 Simulation completed = 3.5520003%

Time Step =259
 deltaT = 0.00041302329 s
 Time = 0.10697303 s
aleF sample: (0.98988868 5.5299341e-20 0 -0.099700049 1 0 0 0 1)
aleF sample: (0.98984986 5.5511662e-20 0 -0.10007185 1 0 0 0 1)
 Simulation completed = 3.5657677%

Time Step =260
 deltaT = 0.00041302329 s
 Time = 0.10738605 s
aleF sample: (0.98984986 5.5511662e-20 0 -0.10007185 1 0 0 0 1)
aleF sample: (0.98981104 5.572396e-20 0 -0.10044349 1 0 0 0 1)
 Simulation completed = 3.5795352%

Time Step =261
 deltaT = 0.00041302329 s
 Time = 0.10779908 s
aleF sample: (0.98981104 5.572396e-20 0 -0.10044349 1 0 0 0 1)
aleF sample: (0.98977222 5.5936235e-20 0 -0.10081496 1 0 0 0 1)
 Simulation completed = 3.5933026%

Time Step =262
 deltaT = 0.00041302329 s
 Time = 0.1082121 s
aleF sample: (0.98977222 5.5936235e-20 0 -0.10081496 1 0 0 0 1)
aleF sample: (0.98973342 5.6148486e-20 0 -0.10118626 1 0 0 0 1)
 Simulation completed = 3.60707%

Time Step =263
 deltaT = 0.00041302329 s
 Time = 0.10862512 s
aleF sample: (0.98973342 5.6148486e-20 0 -0.10118626 1 0 0 0 1)
aleF sample: (0.98969461 5.6360713e-20 0 -0.10155738 1 0 0 0 1)
 Simulation completed = 3.6208375%

Time Step =264
 deltaT = 0.00041302329 s
 Time = 0.10903815 s
aleF sample: (0.98969461 5.6360713e-20 0 -0.10155738 1 0 0 0 1)
aleF sample: (0.98965581 5.6572917e-20 0 -0.10192834 1 0 0 0 1)
 Simulation completed = 3.6346049%

Time Step =265
 deltaT = 0.00041302329 s
 Time = 0.10945117 s
aleF sample: (0.98965581 5.6572917e-20 0 -0.10192834 1 0 0 0 1)
aleF sample: (0.98961701 5.6785097e-20 0 -0.10229913 1 0 0 0 1)
 Simulation completed = 3.6483724%

Time Step =266
 deltaT = 0.00041302329 s
 Time = 0.10986419 s
aleF sample: (0.98961701 5.6785097e-20 0 -0.10229913 1 0 0 0 1)
aleF sample: (0.98957822 5.6997253e-20 0 -0.10266974 1 0 0 0 1)
 Simulation completed = 3.6621398%

Time Step =267
 deltaT = 0.00041302329 s
 Time = 0.11027722 s
aleF sample: (0.98957822 5.6997253e-20 0 -0.10266974 1 0 0 0 1)
aleF sample: (0.98953943 5.7209385e-20 0 -0.10304018 1 0 0 0 1)
 Simulation completed = 3.6759073%

Time Step =268
 deltaT = 0.00041302329 s
 Time = 0.11069024 s
aleF sample: (0.98953943 5.7209385e-20 0 -0.10304018 1 0 0 0 1)
aleF sample: (0.98950065 5.7421493e-20 0 -0.10341045 1 0 0 0 1)
 Simulation completed = 3.6896747%

Time Step =269
 deltaT = 0.00041302329 s
 Time = 0.11110326 s
aleF sample: (0.98950065 5.7421493e-20 0 -0.10341045 1 0 0 0 1)
aleF sample: (0.98946187 5.7633576e-20 0 -0.10378054 1 0 0 0 1)
 Simulation completed = 3.7034421%

Time Step =270
 deltaT = 0.00041302329 s
 Time = 0.11151629 s
aleF sample: (0.98946187 5.7633576e-20 0 -0.10378054 1 0 0 0 1)
aleF sample: (0.9894231 5.7845636e-20 0 -0.10415046 1 0 0 0 1)
 Simulation completed = 3.7172096%

Time Step =271
 deltaT = 0.00041302329 s
 Time = 0.11192931 s
aleF sample: (0.9894231 5.7845636e-20 0 -0.10415046 1 0 0 0 1)
aleF sample: (0.98938433 5.8057671e-20 0 -0.1045202 1 0 0 0 1)
 Simulation completed = 3.730977%

Time Step =272
 deltaT = 0.00041302329 s
 Time = 0.11234233 s
aleF sample: (0.98938433 5.8057671e-20 0 -0.1045202 1 0 0 0 1)
aleF sample: (0.98934556 5.8269682e-20 0 -0.10488976 1 0 0 0 1)
 Simulation completed = 3.7447445%

Time Step =273
 deltaT = 0.00041302329 s
 Time = 0.11275536 s
aleF sample: (0.98934556 5.8269682e-20 0 -0.10488976 1 0 0 0 1)
aleF sample: (0.9893068 5.8481668e-20 0 -0.10525915 1 0 0 0 1)
 Simulation completed = 3.7585119%

Time Step =274
 deltaT = 0.00041302329 s
 Time = 0.11316838 s
aleF sample: (0.9893068 5.8481668e-20 0 -0.10525915 1 0 0 0 1)
aleF sample: (0.98926804 5.8693629e-20 0 -0.10562837 1 0 0 0 1)
 Simulation completed = 3.7722794%

Time Step =275
 deltaT = 0.00041302329 s
 Time = 0.1135814 s
aleF sample: (0.98926804 5.8693629e-20 0 -0.10562837 1 0 0 0 1)
aleF sample: (0.98922929 5.8905566e-20 0 -0.1059974 1 0 0 0 1)
 Simulation completed = 3.7860468%

Time Step =276
 deltaT = 0.00041302329 s
 Time = 0.11399443 s
aleF sample: (0.98922929 5.8905566e-20 0 -0.1059974 1 0 0 0 1)
aleF sample: (0.98919054 5.9117478e-20 0 -0.10636626 1 0 0 0 1)
 Simulation completed = 3.7998142%

Time Step =277
 deltaT = 0.00041302329 s
 Time = 0.11440745 s
aleF sample: (0.98919054 5.9117478e-20 0 -0.10636626 1 0 0 0 1)
aleF sample: (0.9891518 5.9329365e-20 0 -0.10673494 1 0 0 0 1)
 Simulation completed = 3.8135817%

Time Step =278
 deltaT = 0.00041302329 s
 Time = 0.11482047 s
aleF sample: (0.9891518 5.9329365e-20 0 -0.10673494 1 0 0 0 1)
aleF sample: (0.98911306 5.9541227e-20 0 -0.10710343 1 0 0 0 1)
 Simulation completed = 3.8273491%

Time Step =279
 deltaT = 0.00041302329 s
 Time = 0.1152335 s
aleF sample: (0.98911306 5.9541227e-20 0 -0.10710343 1 0 0 0 1)
aleF sample: (0.98907433 5.9753065e-20 0 -0.10747175 1 0 0 0 1)
 Simulation completed = 3.8411166%

Time Step =280
 deltaT = 0.00041302329 s
 Time = 0.11564652 s
aleF sample: (0.98907433 5.9753065e-20 0 -0.10747175 1 0 0 0 1)
aleF sample: (0.9890356 5.9964877e-20 0 -0.10783989 1 0 0 0 1)
 Simulation completed = 3.854884%

Time Step =281
 deltaT = 0.00041302329 s
 Time = 0.11605954 s
aleF sample: (0.9890356 5.9964877e-20 0 -0.10783989 1 0 0 0 1)
aleF sample: (0.98899687 6.0176663e-20 0 -0.10820784 1 0 0 0 1)
 Simulation completed = 3.8686515%

Time Step =282
 deltaT = 0.00041302329 s
 Time = 0.11647257 s
aleF sample: (0.98899687 6.0176663e-20 0 -0.10820784 1 0 0 0 1)
aleF sample: (0.98895815 6.0388425e-20 0 -0.10857561 1 0 0 0 1)
 Simulation completed = 3.8824189%

Time Step =283
 deltaT = 0.00041302329 s
 Time = 0.11688559 s
aleF sample: (0.98895815 6.0388425e-20 0 -0.10857561 1 0 0 0 1)
aleF sample: (0.98891944 6.0600161e-20 0 -0.1089432 1 0 0 0 1)
 Simulation completed = 3.8961863%

Time Step =284
 deltaT = 0.00041302329 s
 Time = 0.11729861 s
aleF sample: (0.98891944 6.0600161e-20 0 -0.1089432 1 0 0 0 1)
aleF sample: (0.98888073 6.0811871e-20 0 -0.10931061 1 0 0 0 1)
 Simulation completed = 3.9099538%

Time Step =285
 deltaT = 0.00041302329 s
 Time = 0.11771164 s
aleF sample: (0.98888073 6.0811871e-20 0 -0.10931061 1 0 0 0 1)
aleF sample: (0.98884202 6.1023556e-20 0 -0.10967783 1 0 0 0 1)
 Simulation completed = 3.9237212%

Time Step =286
 deltaT = 0.00041302329 s
 Time = 0.11812466 s
aleF sample: (0.98884202 6.1023556e-20 0 -0.10967783 1 0 0 0 1)
aleF sample: (0.98880332 6.1235215e-20 0 -0.11004487 1 0 0 0 1)
 Simulation completed = 3.9374887%

Time Step =287
 deltaT = 0.00041302329 s
 Time = 0.11853768 s
aleF sample: (0.98880332 6.1235215e-20 0 -0.11004487 1 0 0 0 1)
aleF sample: (0.98876463 6.1446849e-20 0 -0.11041172 1 0 0 0 1)
 Simulation completed = 3.9512561%

Time Step =288
 deltaT = 0.00041302329 s
 Time = 0.11895071 s
aleF sample: (0.98876463 6.1446849e-20 0 -0.11041172 1 0 0 0 1)
aleF sample: (0.98872593 6.1658456e-20 0 -0.11077839 1 0 0 0 1)
 Simulation completed = 3.9650236%

Time Step =289
 deltaT = 0.00041302329 s
 Time = 0.11936373 s
aleF sample: (0.98872593 6.1658456e-20 0 -0.11077839 1 0 0 0 1)
aleF sample: (0.98868725 6.1870038e-20 0 -0.11114487 1 0 0 0 1)
 Simulation completed = 3.978791%

Time Step =290
 deltaT = 0.00041302329 s
 Time = 0.11977675 s
aleF sample: (0.98868725 6.1870038e-20 0 -0.11114487 1 0 0 0 1)
aleF sample: (0.98864856 6.2081593e-20 0 -0.11151116 1 0 0 0 1)
 Simulation completed = 3.9925584%

Time Step =291
 deltaT = 0.00041302329 s
 Time = 0.12018978 s
aleF sample: (0.98864856 6.2081593e-20 0 -0.11151116 1 0 0 0 1)
aleF sample: (0.98860989 6.2293123e-20 0 -0.11187726 1 0 0 0 1)
 Simulation completed = 4.0063259%

Time Step =292
 deltaT = 0.00041302329 s
 Time = 0.1206028 s
aleF sample: (0.98860989 6.2293123e-20 0 -0.11187726 1 0 0 0 1)
aleF sample: (0.98857121 6.2504626e-20 0 -0.11224318 1 0 0 0 1)
 Simulation completed = 4.0200933%

Time Step =293
 deltaT = 0.00041302329 s
 Time = 0.12101582 s
aleF sample: (0.98857121 6.2504626e-20 0 -0.11224318 1 0 0 0 1)
aleF sample: (0.98853255 6.2716103e-20 0 -0.11260891 1 0 0 0 1)
 Simulation completed = 4.0338608%

Time Step =294
 deltaT = 0.00041302329 s
 Time = 0.12142885 s
aleF sample: (0.98853255 6.2716103e-20 0 -0.11260891 1 0 0 0 1)
aleF sample: (0.98849388 6.2927553e-20 0 -0.11297445 1 0 0 0 1)
 Simulation completed = 4.0476282%

Time Step =295
 deltaT = 0.00041302329 s
 Time = 0.12184187 s
aleF sample: (0.98849388 6.2927553e-20 0 -0.11297445 1 0 0 0 1)
aleF sample: (0.98845522 6.3138977e-20 0 -0.11333979 1 0 0 0 1)
 Simulation completed = 4.0613957%

Time Step =296
 deltaT = 0.00041302329 s
 Time = 0.12225489 s
aleF sample: (0.98845522 6.3138977e-20 0 -0.11333979 1 0 0 0 1)
aleF sample: (0.98841657 6.3350375e-20 0 -0.11370495 1 0 0 0 1)
 Simulation completed = 4.0751631%

Time Step =297
 deltaT = 0.00041302329 s
 Time = 0.12266792 s
aleF sample: (0.98841657 6.3350375e-20 0 -0.11370495 1 0 0 0 1)
aleF sample: (0.98837792 6.3561746e-20 0 -0.11406992 1 0 0 0 1)
 Simulation completed = 4.0889305%

Time Step =298
 deltaT = 0.00041302329 s
 Time = 0.12308094 s
aleF sample: (0.98837792 6.3561746e-20 0 -0.11406992 1 0 0 0 1)
aleF sample: (0.98833928 6.377309e-20 0 -0.11443469 1 0 0 0 1)
 Simulation completed = 4.102698%

Time Step =299
 deltaT = 0.00041302329 s
 Time = 0.12349396 s
aleF sample: (0.98833928 6.377309e-20 0 -0.11443469 1 0 0 0 1)
aleF sample: (0.98830064 6.3984407e-20 0 -0.11479927 1 0 0 0 1)
 Simulation completed = 4.1164654%

Time Step =300
 deltaT = 0.00041302329 s
 Time = 0.12390699 s
aleF sample: (0.98830064 6.3984407e-20 0 -0.11479927 1 0 0 0 1)
aleF sample: (0.98826201 6.4195697e-20 0 -0.11516366 1 0 0 0 1)
 Simulation completed = 4.1302329%

Time Step =301
 deltaT = 0.00041302329 s
 Time = 0.12432001 s
aleF sample: (0.98826201 6.4195697e-20 0 -0.11516366 1 0 0 0 1)
aleF sample: (0.98822338 6.440696e-20 0 -0.11552785 1 0 0 0 1)
 Simulation completed = 4.1440003%

Time Step =302
 deltaT = 0.00041302329 s
 Time = 0.12473303 s
aleF sample: (0.98822338 6.440696e-20 0 -0.11552785 1 0 0 0 1)
aleF sample: (0.98818475 6.4618196e-20 0 -0.11589185 1 0 0 0 1)
 Simulation completed = 4.1577678%

Time Step =303
 deltaT = 0.00041302329 s
 Time = 0.12514606 s
aleF sample: (0.98818475 6.4618196e-20 0 -0.11589185 1 0 0 0 1)
aleF sample: (0.98814613 6.4829405e-20 0 -0.11625566 1 0 0 0 1)
 Simulation completed = 4.1715352%

Time Step =304
 deltaT = 0.00041302329 s
 Time = 0.12555908 s
aleF sample: (0.98814613 6.4829405e-20 0 -0.11625566 1 0 0 0 1)
aleF sample: (0.98810752 6.5040587e-20 0 -0.11661926 1 0 0 0 1)
 Simulation completed = 4.1853026%

Time Step =305
 deltaT = 0.00041302329 s
 Time = 0.1259721 s
aleF sample: (0.98810752 6.5040587e-20 0 -0.11661926 1 0 0 0 1)
aleF sample: (0.98806891 6.5251741e-20 0 -0.11698268 1 0 0 0 1)
 Simulation completed = 4.1990701%

Time Step =306
 deltaT = 0.00041302329 s
 Time = 0.12638513 s
aleF sample: (0.98806891 6.5251741e-20 0 -0.11698268 1 0 0 0 1)
aleF sample: (0.98803031 6.5462868e-20 0 -0.11734589 1 0 0 0 1)
 Simulation completed = 4.2128375%

Time Step =307
 deltaT = 0.00041302329 s
 Time = 0.12679815 s
aleF sample: (0.98803031 6.5462868e-20 0 -0.11734589 1 0 0 0 1)
aleF sample: (0.98799171 6.5673967e-20 0 -0.11770891 1 0 0 0 1)
 Simulation completed = 4.226605%

Time Step =308
 deltaT = 0.00041302329 s
 Time = 0.12721117 s
aleF sample: (0.98799171 6.5673967e-20 0 -0.11770891 1 0 0 0 1)
aleF sample: (0.98795312 6.5885039e-20 0 -0.11807173 1 0 0 0 1)
 Simulation completed = 4.2403724%

Time Step =309
 deltaT = 0.00041302329 s
 Time = 0.1276242 s
aleF sample: (0.98795312 6.5885039e-20 0 -0.11807173 1 0 0 0 1)
aleF sample: (0.98791453 6.6096083e-20 0 -0.11843435 1 0 0 0 1)
 Simulation completed = 4.2541399%

Time Step =310
 deltaT = 0.00041302329 s
 Time = 0.12803722 s
aleF sample: (0.98791453 6.6096083e-20 0 -0.11843435 1 0 0 0 1)
aleF sample: (0.98787594 6.6307099e-20 0 -0.11879677 1 0 0 0 1)
 Simulation completed = 4.2679073%

Time Step =311
 deltaT = 0.00041302329 s
 Time = 0.12845024 s
aleF sample: (0.98787594 6.6307099e-20 0 -0.11879677 1 0 0 0 1)
aleF sample: (0.98783736 6.6518087e-20 0 -0.11915899 1 0 0 0 1)
 Simulation completed = 4.2816747%

Time Step =312
 deltaT = 0.00041302329 s
 Time = 0.12886327 s
aleF sample: (0.98783736 6.6518087e-20 0 -0.11915899 1 0 0 0 1)
aleF sample: (0.98779879 6.6729047e-20 0 -0.11952101 1 0 0 0 1)
 Simulation completed = 4.2954422%

Time Step =313
 deltaT = 0.00041302329 s
 Time = 0.12927629 s
aleF sample: (0.98779879 6.6729047e-20 0 -0.11952101 1 0 0 0 1)
aleF sample: (0.98776022 6.6939979e-20 0 -0.11988283 1 0 0 0 1)
 Simulation completed = 4.3092096%

Time Step =314
 deltaT = 0.00041302329 s
 Time = 0.12968931 s
aleF sample: (0.98776022 6.6939979e-20 0 -0.11988283 1 0 0 0 1)
aleF sample: (0.98772166 6.7150883e-20 0 -0.12024445 1 0 0 0 1)
 Simulation completed = 4.3229771%

Time Step =315
 deltaT = 0.00041302329 s
 Time = 0.13010234 s
aleF sample: (0.98772166 6.7150883e-20 0 -0.12024445 1 0 0 0 1)
aleF sample: (0.9876831 6.7361758e-20 0 -0.12060586 1 0 0 0 1)
 Simulation completed = 4.3367445%

Time Step =316
 deltaT = 0.00041302329 s
 Time = 0.13051536 s
aleF sample: (0.9876831 6.7361758e-20 0 -0.12060586 1 0 0 0 1)
aleF sample: (0.98764455 6.7572606e-20 0 -0.12096707 1 0 0 0 1)
 Simulation completed = 4.350512%

Time Step =317
 deltaT = 0.00041302329 s
 Time = 0.13092838 s
aleF sample: (0.98764455 6.7572606e-20 0 -0.12096707 1 0 0 0 1)
aleF sample: (0.987606 6.7783425e-20 0 -0.12132808 1 0 0 0 1)
 Simulation completed = 4.3642794%

Time Step =318
 deltaT = 0.00041302329 s
 Time = 0.13134141 s
aleF sample: (0.987606 6.7783425e-20 0 -0.12132808 1 0 0 0 1)
aleF sample: (0.98756746 6.7994215e-20 0 -0.12168889 1 0 0 0 1)
 Simulation completed = 4.3780468%

Time Step =319
 deltaT = 0.00041302329 s
 Time = 0.13175443 s
aleF sample: (0.98756746 6.7994215e-20 0 -0.12168889 1 0 0 0 1)
aleF sample: (0.98752892 6.8204976e-20 0 -0.12204949 1 0 0 0 1)
 Simulation completed = 4.3918143%

Time Step =320
 deltaT = 0.00041302329 s
 Time = 0.13216745 s
aleF sample: (0.98752892 6.8204976e-20 0 -0.12204949 1 0 0 0 1)
aleF sample: (0.98749039 6.8415709e-20 0 -0.12240988 1 0 0 0 1)
 Simulation completed = 4.4055817%

Time Step =321
 deltaT = 0.00041302329 s
 Time = 0.13258048 s
aleF sample: (0.98749039 6.8415709e-20 0 -0.12240988 1 0 0 0 1)
aleF sample: (0.98745186 6.8626414e-20 0 -0.12277007 1 0 0 0 1)
 Simulation completed = 4.4193492%

Time Step =322
 deltaT = 0.00041302329 s
 Time = 0.1329935 s
aleF sample: (0.98745186 6.8626414e-20 0 -0.12277007 1 0 0 0 1)
aleF sample: (0.98741334 6.8837089e-20 0 -0.12313005 1 0 0 0 1)
 Simulation completed = 4.4331166%

Time Step =323
 deltaT = 0.00041302329 s
 Time = 0.13340652 s
aleF sample: (0.98741334 6.8837089e-20 0 -0.12313005 1 0 0 0 1)
aleF sample: (0.98737483 6.9047735e-20 0 -0.12348982 1 0 0 0 1)
 Simulation completed = 4.4468841%

Time Step =324
 deltaT = 0.00041302329 s
 Time = 0.13381954 s
aleF sample: (0.98737483 6.9047735e-20 0 -0.12348982 1 0 0 0 1)
aleF sample: (0.98733631 6.9258352e-20 0 -0.12384939 1 0 0 0 1)
 Simulation completed = 4.4606515%

Time Step =325
 deltaT = 0.00041302329 s
 Time = 0.13423257 s
aleF sample: (0.98733631 6.9258352e-20 0 -0.12384939 1 0 0 0 1)
aleF sample: (0.98729781 6.946894e-20 0 -0.12420874 1 0 0 0 1)
 Simulation completed = 4.4744189%

Time Step =326
 deltaT = 0.00041302329 s
 Time = 0.13464559 s
aleF sample: (0.98729781 6.946894e-20 0 -0.12420874 1 0 0 0 1)
aleF sample: (0.98725931 6.9679499e-20 0 -0.12456789 1 0 0 0 1)
 Simulation completed = 4.4881864%

Time Step =327
 deltaT = 0.00041302329 s
 Time = 0.13505861 s
aleF sample: (0.98725931 6.9679499e-20 0 -0.12456789 1 0 0 0 1)
aleF sample: (0.98722081 6.9890029e-20 0 -0.12492683 1 0 0 0 1)
 Simulation completed = 4.5019538%

Time Step =328
 deltaT = 0.00041302329 s
 Time = 0.13547164 s
aleF sample: (0.98722081 6.9890029e-20 0 -0.12492683 1 0 0 0 1)
aleF sample: (0.98718233 7.0100529e-20 0 -0.12528556 1 0 0 0 1)
 Simulation completed = 4.5157213%

Time Step =329
 deltaT = 0.00041302329 s
 Time = 0.13588466 s
aleF sample: (0.98718233 7.0100529e-20 0 -0.12528556 1 0 0 0 1)
aleF sample: (0.98714384 7.0310999e-20 0 -0.12564407 1 0 0 0 1)
 Simulation completed = 4.5294887%

Time Step =330
 deltaT = 0.00041302329 s
 Time = 0.13629768 s
aleF sample: (0.98714384 7.0310999e-20 0 -0.12564407 1 0 0 0 1)
aleF sample: (0.98710536 7.052144e-20 0 -0.12600238 1 0 0 0 1)
 Simulation completed = 4.5432562%

Time Step =331
 deltaT = 0.00041302329 s
 Time = 0.13671071 s
aleF sample: (0.98710536 7.052144e-20 0 -0.12600238 1 0 0 0 1)
aleF sample: (0.98706689 7.0731852e-20 0 -0.12636047 1 0 0 0 1)
 Simulation completed = 4.5570236%

Time Step =332
 deltaT = 0.00041302329 s
 Time = 0.13712373 s
aleF sample: (0.98706689 7.0731852e-20 0 -0.12636047 1 0 0 0 1)
aleF sample: (0.98702842 7.0942233e-20 0 -0.12671835 1 0 0 0 1)
 Simulation completed = 4.570791%

Time Step =333
 deltaT = 0.00041302329 s
 Time = 0.13753675 s
aleF sample: (0.98702842 7.0942233e-20 0 -0.12671835 1 0 0 0 1)
aleF sample: (0.98698996 7.1152585e-20 0 -0.12707602 1 0 0 0 1)
 Simulation completed = 4.5845585%

Time Step =334
 deltaT = 0.00041302329 s
 Time = 0.13794978 s
aleF sample: (0.98698996 7.1152585e-20 0 -0.12707602 1 0 0 0 1)
aleF sample: (0.9869515 7.1362907e-20 0 -0.12743347 1 0 0 0 1)
 Simulation completed = 4.5983259%

Time Step =335
 deltaT = 0.00041302329 s
 Time = 0.1383628 s
aleF sample: (0.9869515 7.1362907e-20 0 -0.12743347 1 0 0 0 1)
aleF sample: (0.98691305 7.1573198e-20 0 -0.12779071 1 0 0 0 1)
 Simulation completed = 4.6120934%

Time Step =336
 deltaT = 0.00041302329 s
 Time = 0.13877582 s
aleF sample: (0.98691305 7.1573198e-20 0 -0.12779071 1 0 0 0 1)
aleF sample: (0.98687461 7.178346e-20 0 -0.12814774 1 0 0 0 1)
 Simulation completed = 4.6258608%

Time Step =337
 deltaT = 0.00041302329 s
 Time = 0.13918885 s
aleF sample: (0.98687461 7.178346e-20 0 -0.12814774 1 0 0 0 1)
aleF sample: (0.98683617 7.1993691e-20 0 -0.12850454 1 0 0 0 1)
 Simulation completed = 4.6396283%

Time Step =338
 deltaT = 0.00041302329 s
 Time = 0.13960187 s
aleF sample: (0.98683617 7.1993691e-20 0 -0.12850454 1 0 0 0 1)
aleF sample: (0.98679773 7.2203892e-20 0 -0.12886114 1 0 0 0 1)
 Simulation completed = 4.6533957%

Time Step =339
 deltaT = 0.00041302329 s
 Time = 0.14001489 s
aleF sample: (0.98679773 7.2203892e-20 0 -0.12886114 1 0 0 0 1)
aleF sample: (0.9867593 7.2414063e-20 0 -0.12921751 1 0 0 0 1)
 Simulation completed = 4.6671631%

Time Step =340
 deltaT = 0.00041302329 s
 Time = 0.14042792 s
aleF sample: (0.9867593 7.2414063e-20 0 -0.12921751 1 0 0 0 1)
aleF sample: (0.98672088 7.2624203e-20 0 -0.12957367 1 0 0 0 1)
 Simulation completed = 4.6809306%

Time Step =341
 deltaT = 0.00041302329 s
 Time = 0.14084094 s
aleF sample: (0.98672088 7.2624203e-20 0 -0.12957367 1 0 0 0 1)
aleF sample: (0.98668246 7.2834313e-20 0 -0.12992961 1 0 0 0 1)
 Simulation completed = 4.694698%

Time Step =342
 deltaT = 0.00041302329 s
 Time = 0.14125396 s
aleF sample: (0.98668246 7.2834313e-20 0 -0.12992961 1 0 0 0 1)
aleF sample: (0.98664405 7.3044392e-20 0 -0.13028533 1 0 0 0 1)
 Simulation completed = 4.7084655%

Time Step =343
 deltaT = 0.00041302329 s
 Time = 0.14166699 s
[...]
aleF sample: (1.0605953 -3.3139905e-19 0 -0.033992789 1 0 0 0 1)
 Simulation completed = 98.808938%

Time Step =7178
 deltaT = 0.00041302329 s
 Time = 2.9646812 s
aleF sample: (1.0605953 -3.3139905e-19 0 -0.033992789 1 0 0 0 1)
aleF sample: (1.0605975 -3.3141106e-19 0 -0.033601491 1 0 0 0 1)
 Simulation completed = 98.822705%

Time Step =7179
 deltaT = 0.00041302329 s
 Time = 2.9650942 s
aleF sample: (1.0605975 -3.3141106e-19 0 -0.033601491 1 0 0 0 1)
aleF sample: (1.0605997 -3.3142293e-19 0 -0.033210137 1 0 0 0 1)
 Simulation completed = 98.836472%

Time Step =7180
 deltaT = 0.00041302329 s
 Time = 2.9655072 s
aleF sample: (1.0605997 -3.3142293e-19 0 -0.033210137 1 0 0 0 1)
aleF sample: (1.0606018 -3.3143467e-19 0 -0.032818726 1 0 0 0 1)
 Simulation completed = 98.85024%

Time Step =7181
 deltaT = 0.00041302329 s
 Time = 2.9659202 s
aleF sample: (1.0606018 -3.3143467e-19 0 -0.032818726 1 0 0 0 1)
aleF sample: (1.060604 -3.3144626e-19 0 -0.032427261 1 0 0 0 1)
 Simulation completed = 98.864007%

Time Step =7182
 deltaT = 0.00041302329 s
 Time = 2.9663332 s
aleF sample: (1.060604 -3.3144626e-19 0 -0.032427261 1 0 0 0 1)
aleF sample: (1.0606061 -3.3145771e-19 0 -0.03203574 1 0 0 0 1)
 Simulation completed = 98.877775%

Time Step =7183
 deltaT = 0.00041302329 s
 Time = 2.9667463 s
aleF sample: (1.0606061 -3.3145771e-19 0 -0.03203574 1 0 0 0 1)
aleF sample: (1.0606081 -3.3146902e-19 0 -0.031644166 1 0 0 0 1)
 Simulation completed = 98.891542%

Time Step =7184
 deltaT = 0.00041302329 s
 Time = 2.9671593 s
aleF sample: (1.0606081 -3.3146902e-19 0 -0.031644166 1 0 0 0 1)
aleF sample: (1.0606102 -3.314802e-19 0 -0.031252539 1 0 0 0 1)
 Simulation completed = 98.90531%

Time Step =7185
 deltaT = 0.00041302329 s
 Time = 2.9675723 s
aleF sample: (1.0606102 -3.314802e-19 0 -0.031252539 1 0 0 0 1)
aleF sample: (1.0606122 -3.3149123e-19 0 -0.030860858 1 0 0 0 1)
 Simulation completed = 98.919077%

Time Step =7186
 deltaT = 0.00041302329 s
 Time = 2.9679853 s
aleF sample: (1.0606122 -3.3149123e-19 0 -0.030860858 1 0 0 0 1)
aleF sample: (1.0606142 -3.3150213e-19 0 -0.030469126 1 0 0 0 1)
 Simulation completed = 98.932845%

Time Step =7187
 deltaT = 0.00041302329 s
 Time = 2.9683984 s
aleF sample: (1.0606142 -3.3150213e-19 0 -0.030469126 1 0 0 0 1)
aleF sample: (1.0606162 -3.3151288e-19 0 -0.030077343 1 0 0 0 1)
 Simulation completed = 98.946612%

Time Step =7188
 deltaT = 0.00041302329 s
 Time = 2.9688114 s
aleF sample: (1.0606162 -3.3151288e-19 0 -0.030077343 1 0 0 0 1)
aleF sample: (1.0606181 -3.315235e-19 0 -0.029685509 1 0 0 0 1)
 Simulation completed = 98.960379%

Time Step =7189
 deltaT = 0.00041302329 s
 Time = 2.9692244 s
aleF sample: (1.0606181 -3.315235e-19 0 -0.029685509 1 0 0 0 1)
aleF sample: (1.06062 -3.3153397e-19 0 -0.029293625 1 0 0 0 1)
 Simulation completed = 98.974147%

Time Step =7190
 deltaT = 0.00041302329 s
 Time = 2.9696374 s
aleF sample: (1.06062 -3.3153397e-19 0 -0.029293625 1 0 0 0 1)
aleF sample: (1.0606219 -3.3154431e-19 0 -0.028901691 1 0 0 0 1)
 Simulation completed = 98.987914%

Time Step =7191
 deltaT = 0.00041302329 s
 Time = 2.9700505 s
aleF sample: (1.0606219 -3.3154431e-19 0 -0.028901691 1 0 0 0 1)
aleF sample: (1.0606238 -3.315545e-19 0 -0.028509709 1 0 0 0 1)
 Simulation completed = 99.001682%

Time Step =7192
 deltaT = 0.00041302329 s
 Time = 2.9704635 s
aleF sample: (1.0606238 -3.315545e-19 0 -0.028509709 1 0 0 0 1)
aleF sample: (1.0606256 -3.3156456e-19 0 -0.028117679 1 0 0 0 1)
 Simulation completed = 99.015449%

Time Step =7193
 deltaT = 0.00041302329 s
 Time = 2.9708765 s
aleF sample: (1.0606256 -3.3156456e-19 0 -0.028117679 1 0 0 0 1)
aleF sample: (1.0606274 -3.3157448e-19 0 -0.027725602 1 0 0 0 1)
 Simulation completed = 99.029217%

Time Step =7194
 deltaT = 0.00041302329 s
 Time = 2.9712895 s
aleF sample: (1.0606274 -3.3157448e-19 0 -0.027725602 1 0 0 0 1)
aleF sample: (1.0606292 -3.3158426e-19 0 -0.027333478 1 0 0 0 1)
 Simulation completed = 99.042984%

Time Step =7195
 deltaT = 0.00041302329 s
 Time = 2.9717025 s
aleF sample: (1.0606292 -3.3158426e-19 0 -0.027333478 1 0 0 0 1)
aleF sample: (1.060631 -3.315939e-19 0 -0.026941308 1 0 0 0 1)
 Simulation completed = 99.056752%

Time Step =7196
 deltaT = 0.00041302329 s
 Time = 2.9721156 s
aleF sample: (1.060631 -3.315939e-19 0 -0.026941308 1 0 0 0 1)
aleF sample: (1.0606327 -3.316034e-19 0 -0.026549092 1 0 0 0 1)
 Simulation completed = 99.070519%

Time Step =7197
 deltaT = 0.00041302329 s
 Time = 2.9725286 s
aleF sample: (1.0606327 -3.316034e-19 0 -0.026549092 1 0 0 0 1)
aleF sample: (1.0606344 -3.3161275e-19 0 -0.026156832 1 0 0 0 1)
 Simulation completed = 99.084286%

Time Step =7198
 deltaT = 0.00041302329 s
 Time = 2.9729416 s
aleF sample: (1.0606344 -3.3161275e-19 0 -0.026156832 1 0 0 0 1)
aleF sample: (1.0606361 -3.3162197e-19 0 -0.025764528 1 0 0 0 1)
 Simulation completed = 99.098054%

Time Step =7199
 deltaT = 0.00041302329 s
 Time = 2.9733546 s
aleF sample: (1.0606361 -3.3162197e-19 0 -0.025764528 1 0 0 0 1)
aleF sample: (1.0606378 -3.3163105e-19 0 -0.025372181 1 0 0 0 1)
 Simulation completed = 99.111821%

Time Step =7200
 deltaT = 0.00041302329 s
 Time = 2.9737677 s
aleF sample: (1.0606378 -3.3163105e-19 0 -0.025372181 1 0 0 0 1)
aleF sample: (1.0606394 -3.3164e-19 0 -0.02497979 1 0 0 0 1)
 Simulation completed = 99.125589%

Time Step =7201
 deltaT = 0.00041302329 s
 Time = 2.9741807 s
aleF sample: (1.0606394 -3.3164e-19 0 -0.02497979 1 0 0 0 1)
aleF sample: (1.060641 -3.316488e-19 0 -0.024587358 1 0 0 0 1)
 Simulation completed = 99.139356%

Time Step =7202
 deltaT = 0.00041302329 s
 Time = 2.9745937 s
aleF sample: (1.060641 -3.316488e-19 0 -0.024587358 1 0 0 0 1)
aleF sample: (1.0606426 -3.3165746e-19 0 -0.024194884 1 0 0 0 1)
 Simulation completed = 99.153124%

Time Step =7203
 deltaT = 0.00041302329 s
 Time = 2.9750067 s
aleF sample: (1.0606426 -3.3165746e-19 0 -0.024194884 1 0 0 0 1)
aleF sample: (1.0606441 -3.3166598e-19 0 -0.02380237 1 0 0 0 1)
 Simulation completed = 99.166891%

Time Step =7204
 deltaT = 0.00041302329 s
 Time = 2.9754198 s
aleF sample: (1.0606441 -3.3166598e-19 0 -0.02380237 1 0 0 0 1)
aleF sample: (1.0606457 -3.3167436e-19 0 -0.023409815 1 0 0 0 1)
 Simulation completed = 99.180659%

Time Step =7205
 deltaT = 0.00041302329 s
 Time = 2.9758328 s
aleF sample: (1.0606457 -3.3167436e-19 0 -0.023409815 1 0 0 0 1)
aleF sample: (1.0606472 -3.316826e-19 0 -0.023017221 1 0 0 0 1)
 Simulation completed = 99.194426%

Time Step =7206
 deltaT = 0.00041302329 s
 Time = 2.9762458 s
aleF sample: (1.0606472 -3.316826e-19 0 -0.023017221 1 0 0 0 1)
aleF sample: (1.0606487 -3.3169071e-19 0 -0.022624589 1 0 0 0 1)
 Simulation completed = 99.208193%

Time Step =7207
 deltaT = 0.00041302329 s
 Time = 2.9766588 s
aleF sample: (1.0606487 -3.3169071e-19 0 -0.022624589 1 0 0 0 1)
aleF sample: (1.0606501 -3.3169867e-19 0 -0.022231918 1 0 0 0 1)
 Simulation completed = 99.221961%

Time Step =7208
 deltaT = 0.00041302329 s
 Time = 2.9770718 s
aleF sample: (1.0606501 -3.3169867e-19 0 -0.022231918 1 0 0 0 1)
aleF sample: (1.0606516 -3.3170649e-19 0 -0.02183921 1 0 0 0 1)
 Simulation completed = 99.235728%

Time Step =7209
 deltaT = 0.00041302329 s
 Time = 2.9774849 s
aleF sample: (1.0606516 -3.3170649e-19 0 -0.02183921 1 0 0 0 1)
aleF sample: (1.060653 -3.3171418e-19 0 -0.021446465 1 0 0 0 1)
 Simulation completed = 99.249496%

Time Step =7210
 deltaT = 0.00041302329 s
 Time = 2.9778979 s
aleF sample: (1.060653 -3.3171418e-19 0 -0.021446465 1 0 0 0 1)
aleF sample: (1.0606543 -3.3172172e-19 0 -0.021053684 1 0 0 0 1)
 Simulation completed = 99.263263%

Time Step =7211
 deltaT = 0.00041302329 s
 Time = 2.9783109 s
aleF sample: (1.0606543 -3.3172172e-19 0 -0.021053684 1 0 0 0 1)
aleF sample: (1.0606557 -3.3172913e-19 0 -0.020660867 1 0 0 0 1)
 Simulation completed = 99.277031%

Time Step =7212
 deltaT = 0.00041302329 s
 Time = 2.9787239 s
aleF sample: (1.0606557 -3.3172913e-19 0 -0.020660867 1 0 0 0 1)
aleF sample: (1.060657 -3.3173639e-19 0 -0.020268016 1 0 0 0 1)
 Simulation completed = 99.290798%

Time Step =7213
 deltaT = 0.00041302329 s
 Time = 2.979137 s
aleF sample: (1.060657 -3.3173639e-19 0 -0.020268016 1 0 0 0 1)
aleF sample: (1.0606583 -3.3174352e-19 0 -0.01987513 1 0 0 0 1)
 Simulation completed = 99.304566%

Time Step =7214
 deltaT = 0.00041302329 s
 Time = 2.97955 s
aleF sample: (1.0606583 -3.3174352e-19 0 -0.01987513 1 0 0 0 1)
aleF sample: (1.0606596 -3.3175051e-19 0 -0.019482212 1 0 0 0 1)
 Simulation completed = 99.318333%

Time Step =7215
 deltaT = 0.00041302329 s
 Time = 2.979963 s
aleF sample: (1.0606596 -3.3175051e-19 0 -0.019482212 1 0 0 0 1)
aleF sample: (1.0606609 -3.3175735e-19 0 -0.01908926 1 0 0 0 1)
 Simulation completed = 99.3321%

Time Step =7216
 deltaT = 0.00041302329 s
 Time = 2.980376 s
aleF sample: (1.0606609 -3.3175735e-19 0 -0.01908926 1 0 0 0 1)
aleF sample: (1.0606621 -3.3176406e-19 0 -0.018696276 1 0 0 0 1)
 Simulation completed = 99.345868%

Time Step =7217
 deltaT = 0.00041302329 s
 Time = 2.9807891 s
aleF sample: (1.0606621 -3.3176406e-19 0 -0.018696276 1 0 0 0 1)
aleF sample: (1.0606633 -3.3177063e-19 0 -0.018303261 1 0 0 0 1)
 Simulation completed = 99.359635%

Time Step =7218
 deltaT = 0.00041302329 s
 Time = 2.9812021 s
aleF sample: (1.0606633 -3.3177063e-19 0 -0.018303261 1 0 0 0 1)
aleF sample: (1.0606645 -3.3177705e-19 0 -0.017910215 1 0 0 0 1)
 Simulation completed = 99.373403%

Time Step =7219
 deltaT = 0.00041302329 s
 Time = 2.9816151 s
aleF sample: (1.0606645 -3.3177705e-19 0 -0.017910215 1 0 0 0 1)
aleF sample: (1.0606656 -3.3178334e-19 0 -0.017517138 1 0 0 0 1)
 Simulation completed = 99.38717%

Time Step =7220
 deltaT = 0.00041302329 s
 Time = 2.9820281 s
aleF sample: (1.0606656 -3.3178334e-19 0 -0.017517138 1 0 0 0 1)
aleF sample: (1.0606667 -3.3178949e-19 0 -0.017124032 1 0 0 0 1)
 Simulation completed = 99.400938%

Time Step =7221
 deltaT = 0.00041302329 s
 Time = 2.9824412 s
aleF sample: (1.0606667 -3.3178949e-19 0 -0.017124032 1 0 0 0 1)
aleF sample: (1.0606678 -3.317955e-19 0 -0.016730898 1 0 0 0 1)
 Simulation completed = 99.414705%

Time Step =7222
 deltaT = 0.00041302329 s
 Time = 2.9828542 s
aleF sample: (1.0606678 -3.317955e-19 0 -0.016730898 1 0 0 0 1)
aleF sample: (1.0606689 -3.3180137e-19 0 -0.016337735 1 0 0 0 1)
 Simulation completed = 99.428473%

Time Step =7223
 deltaT = 0.00041302329 s
 Time = 2.9832672 s
aleF sample: (1.0606689 -3.3180137e-19 0 -0.016337735 1 0 0 0 1)
aleF sample: (1.0606699 -3.318071e-19 0 -0.015944545 1 0 0 0 1)
 Simulation completed = 99.44224%

Time Step =7224
 deltaT = 0.00041302329 s
 Time = 2.9836802 s
aleF sample: (1.0606699 -3.318071e-19 0 -0.015944545 1 0 0 0 1)
aleF sample: (1.060671 -3.3181269e-19 0 -0.015551328 1 0 0 0 1)
 Simulation completed = 99.456007%

Time Step =7225
 deltaT = 0.00041302329 s
 Time = 2.9840932 s
aleF sample: (1.060671 -3.3181269e-19 0 -0.015551328 1 0 0 0 1)
aleF sample: (1.060672 -3.3181814e-19 0 -0.015158084 1 0 0 0 1)
 Simulation completed = 99.469775%

Time Step =7226
 deltaT = 0.00041302329 s
 Time = 2.9845063 s
aleF sample: (1.060672 -3.3181814e-19 0 -0.015158084 1 0 0 0 1)
aleF sample: (1.0606729 -3.3182345e-19 0 -0.014764816 1 0 0 0 1)
 Simulation completed = 99.483542%

Time Step =7227
 deltaT = 0.00041302329 s
 Time = 2.9849193 s
aleF sample: (1.0606729 -3.3182345e-19 0 -0.014764816 1 0 0 0 1)
aleF sample: (1.0606739 -3.3182862e-19 0 -0.014371522 1 0 0 0 1)
 Simulation completed = 99.49731%

Time Step =7228
 deltaT = 0.00041302329 s
 Time = 2.9853323 s
aleF sample: (1.0606739 -3.3182862e-19 0 -0.014371522 1 0 0 0 1)
aleF sample: (1.0606748 -3.3183365e-19 0 -0.013978204 1 0 0 0 1)
 Simulation completed = 99.511077%

Time Step =7229
 deltaT = 0.00041302329 s
 Time = 2.9857453 s
aleF sample: (1.0606748 -3.3183365e-19 0 -0.013978204 1 0 0 0 1)
aleF sample: (1.0606757 -3.3183854e-19 0 -0.013584863 1 0 0 0 1)
 Simulation completed = 99.524845%

Time Step =7230
 deltaT = 0.00041302329 s
 Time = 2.9861584 s
aleF sample: (1.0606757 -3.3183854e-19 0 -0.013584863 1 0 0 0 1)
aleF sample: (1.0606766 -3.3184329e-19 0 -0.013191498 1 0 0 0 1)
 Simulation completed = 99.538612%

Time Step =7231
 deltaT = 0.00041302329 s
 Time = 2.9865714 s
aleF sample: (1.0606766 -3.3184329e-19 0 -0.013191498 1 0 0 0 1)
aleF sample: (1.0606774 -3.318479e-19 0 -0.012798112 1 0 0 0 1)
 Simulation completed = 99.55238%

Time Step =7232
 deltaT = 0.00041302329 s
 Time = 2.9869844 s
aleF sample: (1.0606774 -3.318479e-19 0 -0.012798112 1 0 0 0 1)
aleF sample: (1.0606782 -3.3185237e-19 0 -0.012404704 1 0 0 0 1)
 Simulation completed = 99.566147%

Time Step =7233
 deltaT = 0.00041302329 s
 Time = 2.9873974 s
aleF sample: (1.0606782 -3.3185237e-19 0 -0.012404704 1 0 0 0 1)
aleF sample: (1.060679 -3.3185671e-19 0 -0.012011275 1 0 0 0 1)
 Simulation completed = 99.579914%

Time Step =7234
 deltaT = 0.00041302329 s
 Time = 2.9878105 s
aleF sample: (1.060679 -3.3185671e-19 0 -0.012011275 1 0 0 0 1)
aleF sample: (1.0606798 -3.318609e-19 0 -0.011617826 1 0 0 0 1)
 Simulation completed = 99.593682%

Time Step =7235
 deltaT = 0.00041302329 s
 Time = 2.9882235 s
aleF sample: (1.0606798 -3.318609e-19 0 -0.011617826 1 0 0 0 1)
aleF sample: (1.0606805 -3.3186495e-19 0 -0.011224357 1 0 0 0 1)
 Simulation completed = 99.607449%

Time Step =7236
 deltaT = 0.00041302329 s
 Time = 2.9886365 s
aleF sample: (1.0606805 -3.3186495e-19 0 -0.011224357 1 0 0 0 1)
aleF sample: (1.0606812 -3.3186887e-19 0 -0.010830869 1 0 0 0 1)
 Simulation completed = 99.621217%

Time Step =7237
 deltaT = 0.00041302329 s
 Time = 2.9890495 s
aleF sample: (1.0606812 -3.3186887e-19 0 -0.010830869 1 0 0 0 1)
aleF sample: (1.0606819 -3.3187264e-19 0 -0.010437363 1 0 0 0 1)
 Simulation completed = 99.634984%

Time Step =7238
 deltaT = 0.00041302329 s
 Time = 2.9894625 s
aleF sample: (1.0606819 -3.3187264e-19 0 -0.010437363 1 0 0 0 1)
aleF sample: (1.0606826 -3.3187627e-19 0 -0.01004384 1 0 0 0 1)
 Simulation completed = 99.648752%

Time Step =7239
 deltaT = 0.00041302329 s
 Time = 2.9898756 s
aleF sample: (1.0606826 -3.3187627e-19 0 -0.01004384 1 0 0 0 1)
aleF sample: (1.0606832 -3.3187977e-19 0 -0.0096502996 1 0 0 0 1)
 Simulation completed = 99.662519%

Time Step =7240
 deltaT = 0.00041302329 s
 Time = 2.9902886 s
aleF sample: (1.0606832 -3.3187977e-19 0 -0.0096502996 1 0 0 0 1)
aleF sample: (1.0606838 -3.3188312e-19 0 -0.009256743 1 0 0 0 1)
 Simulation completed = 99.676287%

Time Step =7241
 deltaT = 0.00041302329 s
 Time = 2.9907016 s
aleF sample: (1.0606838 -3.3188312e-19 0 -0.009256743 1 0 0 0 1)
aleF sample: (1.0606844 -3.3188634e-19 0 -0.0088631708 1 0 0 0 1)
 Simulation completed = 99.690054%

Time Step =7242
 deltaT = 0.00041302329 s
 Time = 2.9911146 s
aleF sample: (1.0606844 -3.3188634e-19 0 -0.0088631708 1 0 0 0 1)
aleF sample: (1.060685 -3.3188941e-19 0 -0.0084695837 1 0 0 0 1)
 Simulation completed = 99.703821%

Time Step =7243
 deltaT = 0.00041302329 s
 Time = 2.9915277 s
aleF sample: (1.060685 -3.3188941e-19 0 -0.0084695837 1 0 0 0 1)
aleF sample: (1.0606855 -3.3189235e-19 0 -0.0080759824 1 0 0 0 1)
 Simulation completed = 99.717589%

Time Step =7244
 deltaT = 0.00041302329 s
 Time = 2.9919407 s
aleF sample: (1.0606855 -3.3189235e-19 0 -0.0080759824 1 0 0 0 1)
aleF sample: (1.060686 -3.3189514e-19 0 -0.0076823674 1 0 0 0 1)
 Simulation completed = 99.731356%

Time Step =7245
 deltaT = 0.00041302329 s
 Time = 2.9923537 s
aleF sample: (1.060686 -3.3189514e-19 0 -0.0076823674 1 0 0 0 1)
aleF sample: (1.0606865 -3.318978e-19 0 -0.0072887395 1 0 0 0 1)
 Simulation completed = 99.745124%

Time Step =7246
 deltaT = 0.00041302329 s
 Time = 2.9927667 s
aleF sample: (1.0606865 -3.318978e-19 0 -0.0072887395 1 0 0 0 1)
aleF sample: (1.060687 -3.3190032e-19 0 -0.0068950994 1 0 0 0 1)
 Simulation completed = 99.758891%

Time Step =7247
 deltaT = 0.00041302329 s
 Time = 2.9931798 s
aleF sample: (1.060687 -3.3190032e-19 0 -0.0068950994 1 0 0 0 1)
aleF sample: (1.0606874 -3.3190269e-19 0 -0.0065014476 1 0 0 0 1)
 Simulation completed = 99.772659%

Time Step =7248
 deltaT = 0.00041302329 s
 Time = 2.9935928 s
aleF sample: (1.0606874 -3.3190269e-19 0 -0.0065014476 1 0 0 0 1)
aleF sample: (1.0606878 -3.3190493e-19 0 -0.0061077849 1 0 0 0 1)
 Simulation completed = 99.786426%

Time Step =7249
 deltaT = 0.00041302329 s
 Time = 2.9940058 s
aleF sample: (1.0606878 -3.3190493e-19 0 -0.0061077849 1 0 0 0 1)
aleF sample: (1.0606882 -3.3190703e-19 0 -0.0057141119 1 0 0 0 1)
 Simulation completed = 99.800193%

Time Step =7250
 deltaT = 0.00041302329 s
 Time = 2.9944188 s
aleF sample: (1.0606882 -3.3190703e-19 0 -0.0057141119 1 0 0 0 1)
aleF sample: (1.0606886 -3.3190899e-19 0 -0.0053204293 1 0 0 0 1)
 Simulation completed = 99.813961%

Time Step =7251
 deltaT = 0.00041302329 s
 Time = 2.9948319 s
aleF sample: (1.0606886 -3.3190899e-19 0 -0.0053204293 1 0 0 0 1)
aleF sample: (1.0606889 -3.319108e-19 0 -0.0049267377 1 0 0 0 1)
 Simulation completed = 99.827728%

Time Step =7252
 deltaT = 0.00041302329 s
 Time = 2.9952449 s
aleF sample: (1.0606889 -3.319108e-19 0 -0.0049267377 1 0 0 0 1)
aleF sample: (1.0606892 -3.3191248e-19 0 -0.0045330378 1 0 0 0 1)
 Simulation completed = 99.841496%

Time Step =7253
 deltaT = 0.00041302329 s
 Time = 2.9956579 s
aleF sample: (1.0606892 -3.3191248e-19 0 -0.0045330378 1 0 0 0 1)
aleF sample: (1.0606895 -3.3191402e-19 0 -0.0041393303 1 0 0 0 1)
 Simulation completed = 99.855263%

Time Step =7254
 deltaT = 0.00041302329 s
 Time = 2.9960709 s
aleF sample: (1.0606895 -3.3191402e-19 0 -0.0041393303 1 0 0 0 1)
aleF sample: (1.0606898 -3.3191542e-19 0 -0.0037456159 1 0 0 0 1)
 Simulation completed = 99.869031%

Time Step =7255
 deltaT = 0.00041302329 s
 Time = 2.9964839 s
aleF sample: (1.0606898 -3.3191542e-19 0 -0.0037456159 1 0 0 0 1)
aleF sample: (1.06069 -3.3191668e-19 0 -0.0033518951 1 0 0 0 1)
 Simulation completed = 99.882798%

Time Step =7256
 deltaT = 0.00041302329 s
 Time = 2.996897 s
aleF sample: (1.06069 -3.3191668e-19 0 -0.0033518951 1 0 0 0 1)
aleF sample: (1.0606902 -3.319178e-19 0 -0.0029581687 1 0 0 0 1)
 Simulation completed = 99.896566%

Time Step =7257
 deltaT = 0.00041302329 s
 Time = 2.99731 s
aleF sample: (1.0606902 -3.319178e-19 0 -0.0029581687 1 0 0 0 1)
aleF sample: (1.0606904 -3.3191878e-19 0 -0.0025644373 1 0 0 0 1)
 Simulation completed = 99.910333%

Time Step =7258
 deltaT = 0.00041302329 s
 Time = 2.997723 s
aleF sample: (1.0606904 -3.3191878e-19 0 -0.0025644373 1 0 0 0 1)
aleF sample: (1.0606905 -3.3191962e-19 0 -0.0021707016 1 0 0 0 1)
 Simulation completed = 99.9241%

Time Step =7259
 deltaT = 0.00041302329 s
 Time = 2.998136 s
aleF sample: (1.0606905 -3.3191962e-19 0 -0.0021707016 1 0 0 0 1)
aleF sample: (1.0606906 -3.3192032e-19 0 -0.0017769622 1 0 0 0 1)
 Simulation completed = 99.937868%

Time Step =7260
 deltaT = 0.00041302329 s
 Time = 2.9985491 s
aleF sample: (1.0606906 -3.3192032e-19 0 -0.0017769622 1 0 0 0 1)
aleF sample: (1.0606908 -3.3192088e-19 0 -0.0013832198 1 0 0 0 1)
 Simulation completed = 99.951635%

Time Step =7261
 deltaT = 0.00041302329 s
 Time = 2.9989621 s
aleF sample: (1.0606908 -3.3192088e-19 0 -0.0013832198 1 0 0 0 1)
aleF sample: (1.0606908 -3.319213e-19 0 -0.00098947513 1 0 0 0 1)
 Simulation completed = 99.965403%

Time Step =7262
 deltaT = 0.00041302329 s
 Time = 2.9993751 s
aleF sample: (1.0606908 -3.319213e-19 0 -0.00098947513 1 0 0 0 1)
aleF sample: (1.0606909 -3.3192158e-19 0 -0.00059572878 1 0 0 0 1)
 Simulation completed = 99.97917%

Time Step =7263
 deltaT = 0.00041302329 s
 Time = 2.9997881 s
aleF sample: (1.0606909 -3.3192158e-19 0 -0.00059572878 1 0 0 0 1)
aleF sample: (1.0606909 -3.3192172e-19 0 -0.00020198142 1 0 0 0 1)
 Simulation completed = 99.992938%

Time Step =7264
 deltaT = 0.00041302329 s
 Time = 3.0002012 s
aleF sample: (1.0606909 -3.3192172e-19 0 -0.00020198142 1 0 0 0 1)
aleF sample: (1.0606909 -3.3192172e-19 0 0.00019176629 1 0 0 0 1)
 Simulation completed = 100.00671%

ExecutionTime = 190.44 s  ClockTime = 192 s
End

