/*---------------------------------------------------------------------------*\
  =========                 |
  \\      /  F ield         | OpenFOAM: The Open Source CFD Toolbox
   \\    /   O peration     | Website:  https://openfoam.org
    \\  /    A nd           | Version:  6
     \\/     M anipulation  |
\*---------------------------------------------------------------------------*/
Build  : 6
Exec   : solidVertexFoam
Date   : Sep 15 2020
Time   : 10:10:22
Host   : "DESKTOP-JSPBMTA"
PID    : 16722
I/O    : uncollated
Case   : /home/thomas/OpenFOAM/explicitSolidDynamics_vc/tutorials/solidVertexFoam/bendingColumn
nProcs : 1
sigFpe : Enabling floating point exception trapping (FOAM_SIGFPE).
fileModificationChecking : Monitoring run-time modified files using timeStampMaster (fileModificationSkew 10)
allowSystemOperations : Allowing user-supplied system call operations

// * * * * * * * * * * * * * * * * * * * * * * * * * * * * * * * * * * * * * //
Create time

Create mesh for time = 0

Reading dictionaries ...
Reading data from dictionaries ...

Creating mesh parameters ...
Creating mesh coordinate fields ...
Creating linear momentum fields ...
Creating strain measure fields ...
Creating constitutive model ...
Creating fields for wave speeds ...
Creating fields for gradient ...
Creating fields for fluxes ...
Creating fields for angular momentum ...
Creating fields for post-processing ...
Creating variables for time ...
Printing data ...

Printing material properties ...
Constitutive model = neoHookean
Density = 1100 [1 -3 0 0 0 0 0]
Young's modulus = 17000000 [1 -1 -2 0 0 0 0]
Poisson's ratio = 0.45 [0 0 0 0 0 0 0]
Lame's first parameter lambda = 52758621 [1 -1 -2 0 0 0 0]
Lame's second parameter mu = 5862069 [1 -1 -2 0 0 0 0]
Bulk modulus kappa = 56666667 [1 -1 -2 0 0 0 0]
Linear pressure wave speed = 242.1171 [0 1 -1 0 0 0 0]
Linear shear wave speed = 73.001052 [0 1 -1 0 0 0 0]

Printing global momentum ...
 Global linear momentum = (0 0 0)
 Global angular momentum = (0 0 0)
Centroid of primal mesh = (-3.6140072e-18 3 -6.7581935e-18)
Centroid of dual mesh = (-1.3588667e-17 3 -5.7534995e-17)

Time Step =1
 deltaT = 0.00041302329 s
 Time = 0.00041302329 s
 Global linear momentum = (2.0650748 5.6526477e-07 1.7861673e-06)
 Global angular momentum = (9.8931487e-07 0.00014112171 -12.390699)
 Simulation completed = 0.0082604657%

Time Step =2
 deltaT = 0.00041302329 s
 Time = 0.00082604657 s
 Global linear momentum = (4.1300909 2.1566654e-06 2.0593464e-05)
 Global angular momentum = (4.7298738e-06 0.00052151951 -24.781399)
 Simulation completed = 0.016520931%

Time Step =3
 deltaT = 0.00041302329 s
 Time = 0.0012390699 s
 Global linear momentum = (6.1950599 4.6477667e-06 7.3088118e-05)
 Global angular momentum = (1.0895302e-05 0.0011258069 -37.172101)
 Simulation completed = 0.024781397%

Time Step =4
 deltaT = 0.00041302329 s
 Time = 0.0016520931 s
 Global linear momentum = (8.2599916 8.1513008e-06 0.00016568685)
 Global angular momentum = (1.9081019e-05 0.0019455879 -49.562807)
 Simulation completed = 0.033041863%

Time Step =5
 deltaT = 0.00041302329 s
 Time = 0.0020651164 s
 Global linear momentum = (10.324899 1.2884616e-05 0.00028513589)
 Global angular momentum = (2.9092462e-05 0.002960207 -61.953523)
 Simulation completed = 0.041302329%

Time Step =6
 deltaT = 0.00041302329 s
 Time = 0.0024781397 s
 Global linear momentum = (12.389799 1.9056046e-05 0.00040042653)
 Global angular momentum = (4.0941953e-05 0.0041352007 -74.344249)
 Simulation completed = 0.049562794%

Time Step =7
 deltaT = 0.00041302329 s
 Time = 0.002891163 s
 Global linear momentum = (14.454702 2.6800238e-05 0.00047164314)
 Global angular momentum = (5.4800808e-05 0.0054379637 -86.734985)
 Simulation completed = 0.05782326%

Time Step =8
 deltaT = 0.00041302329 s
 Time = 0.0033041863 s
 Global linear momentum = (16.519616 3.610327e-05 0.00045978074)
 Global angular momentum = (7.0936445e-05 0.0068509778 -99.125731)
 Simulation completed = 0.066083726%

Time Step =9
 deltaT = 0.00041302329 s
 Time = 0.0037172096 s
 Global linear momentum = (18.584546 4.6716855e-05 0.00033441782)
 Global angular momentum = (8.9514146e-05 0.0083688434 -111.51648)
 Simulation completed = 0.074344192%

Time Step =10
 deltaT = 0.00041302329 s
 Time = 0.0041302329 s
 Global linear momentum = (20.649499 5.8153686e-05 7.6643847e-05)
 Global angular momentum = (0.00011032544 0.0099857067 -123.90725)
 Simulation completed = 0.082604657%

Time Step =11
 deltaT = 0.00041302329 s
 Time = 0.0045432562 s
 Global linear momentum = (22.714482 6.9825491e-05 -0.00032470816)
 Global angular momentum = (0.00013268738 0.011688703 -136.29802)
 Simulation completed = 0.090865123%

Time Step =12
 deltaT = 0.00041302329 s
 Time = 0.0049562794 s
 Global linear momentum = (24.779503 8.1250618e-05 -0.00088082758)
 Global angular momentum = (0.00015559722 0.013462965 -148.6888)
 Simulation completed = 0.099125589%

Time Step =13
 deltaT = 0.00041302329 s
 Time = 0.0053693027 s
 Global linear momentum = (26.844568 9.2184741e-05 -0.0016074933)
 Global angular momentum = (0.00017791043 0.015300058 -161.07959)
 Simulation completed = 0.10738605%

Time Step =14
 deltaT = 0.00041302329 s
 Time = 0.005782326 s
 Global linear momentum = (28.909682 0.00010260703 -0.0025218084)
 Global angular momentum = (0.0001982688 0.01720011 -173.47037)
 Simulation completed = 0.11564652%

Time Step =15
 deltaT = 0.00041302329 s
 Time = 0.0061953493 s
 Global linear momentum = (30.974851 0.00011263003 -0.0036346733)
 Global angular momentum = (0.00021480334 0.019166895 -185.86116)
 Simulation completed = 0.12390699%

Time Step =16
 deltaT = 0.00041302329 s
 Time = 0.0066083726 s
 Global linear momentum = (33.040081 0.00012244355 -0.0049470867)
 Global angular momentum = (0.00022489821 0.021202171 -198.25195)
 Simulation completed = 0.13216745%

Time Step =17
 deltaT = 0.00041302329 s
 Time = 0.0070213959 s
 Global linear momentum = (35.105375 0.00013232498 -0.006453847)
 Global angular momentum = (0.00022522549 0.023304289 -210.64274)
 Simulation completed = 0.14042792%

Time Step =18
 deltaT = 0.00041302329 s
 Time = 0.0074344192 s
 Global linear momentum = (37.170737 0.00014265862 -0.0081501578)
 Global angular momentum = (0.00021197489 0.025470714 -223.03352)
 Simulation completed = 0.14868838%

Time Step =19
 deltaT = 0.00041302329 s
 Time = 0.0078474424 s
 Global linear momentum = (39.236172 0.00015390258 -0.010034231)
 Global angular momentum = (0.00018105458 0.027701191 -235.42429)
 Simulation completed = 0.15694885%

Time Step =20
 deltaT = 0.00041302329 s
 Time = 0.0082604657 s
 Global linear momentum = (41.301681 0.00016650966 -0.012104162)
 Global angular momentum = (0.00012815326 0.029999208 -247.81506)
 Simulation completed = 0.16520931%

Time Step =21
 deltaT = 0.00041302329 s
 Time = 0.008673489 s
 Global linear momentum = (43.367269 0.00018085999 -0.014353489)
 Global angular momentum = (4.8743625e-05 0.032371279 -260.20581)
 Simulation completed = 0.17346978%

Time Step =22
 deltaT = 0.00041302329 s
 Time = 0.0090865123 s
 Global linear momentum = (45.432938 0.00019724988 -0.01677042)
 Global angular momentum = (-6.1844717e-05 0.03482471 -272.59655)
 Simulation completed = 0.18173025%

Time Step =23
 deltaT = 0.00041302329 s
 Time = 0.0094995356 s
 Global linear momentum = (47.498687 0.00021592712 -0.019341216)
 Global angular momentum = (-0.00020825541 0.037365192 -284.98729)
 Simulation completed = 0.18999071%

Time Step =24
 deltaT = 0.00041302329 s
 Time = 0.0099125589 s
 Global linear momentum = (49.564518 0.00023712616 -0.022054213)
 Global angular momentum = (-0.00039491206 0.039995794 -297.37801)
 Simulation completed = 0.19825118%

Time Step =25
 deltaT = 0.00041302329 s
 Time = 0.010325582 s
 Global linear momentum = (51.630432 0.00026106298 -0.024901103)
 Global angular momentum = (-0.00062587849 0.04271802 -309.76872)
 Simulation completed = 0.20651164%

Time Step =26
 deltaT = 0.00041302329 s
 Time = 0.010738605 s
 Global linear momentum = (53.696429 0.00028788469 -0.02787522)
 Global angular momentum = (-0.00090478918 0.045533833 -322.15943)
 Simulation completed = 0.21477211%

Time Step =27
 deltaT = 0.00041302329 s
 Time = 0.011151629 s
 Global linear momentum = (55.762508 0.00031760192 -0.030969051)
 Global angular momentum = (-0.0012348196 0.048446549 -334.55013)
 Simulation completed = 0.22303257%

Time Step =28
 deltaT = 0.00041302329 s
 Time = 0.011564652 s
 Global linear momentum = (57.828669 0.00035004192 -0.034173195)
 Global angular momentum = (-0.0016186626 0.051459704 -346.94082)
 Simulation completed = 0.23129304%

Time Step =29
 deltaT = 0.00041302329 s
 Time = 0.011977675 s
 Global linear momentum = (59.89491 0.00038484352 -0.037477299)
 Global angular momentum = (-0.0020584939 0.054575118 -359.33152)
 Simulation completed = 0.23955351%

Time Step =30
 deltaT = 0.00041302329 s
 Time = 0.012390699 s
 Global linear momentum = (61.961231 0.00042148617 -0.040871861)
 Global angular momentum = (-0.0025559318 0.057792103 -371.72222)
 Simulation completed = 0.24781397%

Time Step =31
 deltaT = 0.00041302329 s
 Time = 0.012803722 s
 Global linear momentum = (64.02763 0.0004593253 -0.044349359)
 Global angular momentum = (-0.0031120085 0.06110846 -384.11292)
 Simulation completed = 0.25607444%

Time Step =32
 deltaT = 0.00041302329 s
 Time = 0.013216745 s
 Global linear momentum = (66.094106 0.00049761096 -0.04790391)
 Global angular momentum = (-0.0037271794 0.064522002 -396.50364)
 Simulation completed = 0.2643349%

Time Step =33
 deltaT = 0.00041302329 s
 Time = 0.013629768 s
 Global linear momentum = (68.160656 0.00053549096 -0.051529916)
 Global angular momentum = (-0.0044013756 0.06803101 -408.89436)
 Simulation completed = 0.27259537%

Time Step =34
 deltaT = 0.00041302329 s
 Time = 0.014042792 s
 Global linear momentum = (70.227278 0.00057201972 -0.055220907)
 Global angular momentum = (-0.0051340809 0.071633365 -421.2851)
 Simulation completed = 0.28085583%

Time Step =35
 deltaT = 0.00041302329 s
 Time = 0.014455815 s
 Global linear momentum = (72.29397 0.00060619265 -0.058969511)
 Global angular momentum = (-0.0059243962 0.075325456 -433.67586)
 Simulation completed = 0.2891163%

Time Step =36
 deltaT = 0.00041302329 s
 Time = 0.014868838 s
 Global linear momentum = (74.360731 0.00063700378 -0.062768402)
 Global angular momentum = (-0.0067710761 0.079102047 -446.06664)
 Simulation completed = 0.29737677%

Time Step =37
 deltaT = 0.00041302329 s
 Time = 0.015281862 s
 Global linear momentum = (76.427558 0.00066350567 -0.066611167)
 Global angular momentum = (-0.007672553 0.082957197 -458.45745)
 Simulation completed = 0.30563723%

Time Step =38
 deltaT = 0.00041302329 s
 Time = 0.015694885 s
 Global linear momentum = (78.49445 0.00068485049 -0.070492185)
 Global angular momentum = (-0.0086269799 0.086885375 -470.84828)
 Simulation completed = 0.3138977%

Time Step =39
 deltaT = 0.00041302329 s
 Time = 0.016107908 s
 Global linear momentum = (80.561405 0.00070030913 -0.074405628)
 Global angular momentum = (-0.0096322978 0.090881914 -483.23913)
 Simulation completed = 0.32215816%

Time Step =40
 deltaT = 0.00041302329 s
 Time = 0.016520931 s
 Global linear momentum = (82.628421 0.0007092812 -0.078344544)
 Global angular momentum = (-0.01068631 0.094942668 -495.63002)
 Simulation completed = 0.33041863%

Time Step =41
 deltaT = 0.00041302329 s
 Time = 0.016933955 s
 Global linear momentum = (84.695496 0.00071130968 -0.082300857)
 Global angular momentum = (-0.011786735 0.099063422 -508.02094)
 Simulation completed = 0.3386791%

Time Step =42
 deltaT = 0.00041302329 s
 Time = 0.017346978 s
 Global linear momentum = (86.762627 0.00070610189 -0.086266186)
 Global angular momentum = (-0.012931228 0.10323969 -520.41189)
 Simulation completed = 0.34693956%

Time Step =43
 deltaT = 0.00041302329 s
 Time = 0.017760001 s
 Global linear momentum = (88.829814 0.00069354639 -0.090232685)
 Global angular momentum = (-0.014117388 0.10746708 -532.80287)
 Simulation completed = 0.35520003%

Time Step =44
 deltaT = 0.00041302329 s
 Time = 0.018173025 s
 Global linear momentum = (90.897054 0.00067371469 -0.094193171)
 Global angular momentum = (-0.015342777 0.1117419 -545.19388)
 Simulation completed = 0.36346049%

Time Step =45
 deltaT = 0.00041302329 s
 Time = 0.018586048 s
 Global linear momentum = (92.964347 0.00064684571 -0.098140592)
 Global angular momentum = (-0.016604943 0.11606155 -557.58492)
 Simulation completed = 0.37172096%

Time Step =46
 deltaT = 0.00041302329 s
 Time = 0.018999071 s
 Global linear momentum = (95.03169 0.00061332016 -0.10206745)
 Global angular momentum = (-0.017901452 0.12042443 -569.97599)
 Simulation completed = 0.37998142%

Time Step =47
 deltaT = 0.00041302329 s
 Time = 0.019412094 s
 Global linear momentum = (97.099081 0.00057363406 -0.10596576)
 Global angular momentum = (-0.019229907 0.12482955 -582.3671)
 Simulation completed = 0.38824189%

Time Step =48
 deltaT = 0.00041302329 s
 Time = 0.019825118 s
 Global linear momentum = (99.166519 0.00052837497 -0.10982763)
 Global angular momentum = (-0.020587948 0.12927617 -594.75823)
 Simulation completed = 0.39650236%

Time Step =49
 deltaT = 0.00041302329 s
 Time = 0.020238141 s
 Global linear momentum = (101.234 0.00047819724 -0.11364589)
 Global angular momentum = (-0.02197324 0.13376385 -607.14938)
 Simulation completed = 0.40476282%

Time Step =50
 deltaT = 0.00041302329 s
 Time = 0.020651164 s
 Global linear momentum = (103.30153 0.00042379051 -0.11741443)
 Global angular momentum = (-0.023383468 0.13829268 -619.54056)
 Simulation completed = 0.41302329%

Time Step =51
 deltaT = 0.00041302329 s
 Time = 0.021064188 s
 Global linear momentum = (105.3691 0.0003658393 -0.12112798)
 Global angular momentum = (-0.024816336 0.14286355 -631.93177)
 Simulation completed = 0.42128375%

Time Step =52
 deltaT = 0.00041302329 s
 Time = 0.021477211 s
 Global linear momentum = (107.43671 0.0003049777 -0.1247819)
 Global angular momentum = (-0.026269577 0.14747803 -644.323)
 Simulation completed = 0.42954422%

Time Step =53
 deltaT = 0.00041302329 s
 Time = 0.021890234 s
 Global linear momentum = (109.50436 0.00024174535 -0.12837196)
 Global angular momentum = (-0.027740965 0.152138 -656.71424)
 Simulation completed = 0.43780468%

Time Step =54
 deltaT = 0.00041302329 s
 Time = 0.022303257 s
 Global linear momentum = (111.57205 0.00017654801 -0.1318947)
 Global angular momentum = (-0.029228314 0.1568453 -669.10551)
 Simulation completed = 0.44606515%

Time Step =55
 deltaT = 0.00041302329 s
 Time = 0.022716281 s
 Global linear momentum = (113.63978 0.00010962094 -0.13534773)
 Global angular momentum = (-0.030729478 0.16160168 -681.49679)
 Simulation completed = 0.45432562%

Time Step =56
 deltaT = 0.00041302329 s
 Time = 0.023129304 s
 Global linear momentum = (115.70753 4.098978e-05 -0.13872998)
 Global angular momentum = (-0.032242353 0.16640887 -693.88809)
 Simulation completed = 0.46258608%

Time Step =57
 deltaT = 0.00041302329 s
 Time = 0.023542327 s
 Global linear momentum = (117.77533 -2.957451e-05 -0.14204164)
 Global angular momentum = (-0.033764882 0.17126881 -706.27941)
 Simulation completed = 0.47084655%

Time Step =58
 deltaT = 0.00041302329 s
 Time = 0.023955351 s
 Global linear momentum = (119.84315 -0.00010260601 -0.1452838)
 Global angular momentum = (-0.035295074 0.17618357 -718.67073)
 Simulation completed = 0.47910701%

Time Step =59
 deltaT = 0.00041302329 s
 Time = 0.024368374 s
 Global linear momentum = (121.91101 -0.00017899578 -0.14845832)
 Global angular momentum = (-0.036831023 0.1811552 -731.06207)
 Simulation completed = 0.48736748%

Time Step =60
 deltaT = 0.00041302329 s
 Time = 0.024781397 s
 Global linear momentum = (123.97889 -0.00026004222 -0.15156775)
 Global angular momentum = (-0.038370927 0.18618549 -743.45342)
 Simulation completed = 0.49562794%

Time Step =61
 deltaT = 0.00041302329 s
 Time = 0.02519442 s
 Global linear momentum = (126.0468 -0.00034750013 -0.15461556)
 Global angular momentum = (-0.039913097 0.1912759 -755.84478)
 Simulation completed = 0.50388841%

Time Step =62
 deltaT = 0.00041302329 s
 Time = 0.025607444 s
 Global linear momentum = (128.11474 -0.00044363071 -0.15760615)
 Global angular momentum = (-0.04145597 0.19642771 -768.23615)
 Simulation completed = 0.51214888%

Time Step =63
 deltaT = 0.00041302329 s
 Time = 0.026020467 s
 Global linear momentum = (130.1827 -0.0005512547 -0.16054477)
 Global angular momentum = (-0.042998127 0.20164212 -780.62753)
 Simulation completed = 0.52040934%

Time Step =64
 deltaT = 0.00041302329 s
 Time = 0.02643349 s
 Global linear momentum = (132.25069 -0.00067380841 -0.1634372)
 Global angular momentum = (-0.044538309 0.20692038 -793.01892)
 Simulation completed = 0.52866981%

Time Step =65
 deltaT = 0.00041302329 s
 Time = 0.026846514 s
 Global linear momentum = (134.31869 -0.00081540023 -0.16628957)
 Global angular momentum = (-0.046075441 0.21226374 -805.41032)
 Simulation completed = 0.53693027%

Time Step =66
 deltaT = 0.00041302329 s
 Time = 0.027259537 s
 Global linear momentum = (136.38673 -0.00098086521 -0.16910815)
 Global angular momentum = (-0.047608643 0.21767336 -817.80172)
 Simulation completed = 0.54519074%

Time Step =67
 deltaT = 0.00041302329 s
 Time = 0.02767256 s
 Global linear momentum = (138.45478 -0.0011758162 -0.17189942)
 Global angular momentum = (-0.049137239 0.2231503 -830.19314)
 Simulation completed = 0.5534512%

Time Step =68
 deltaT = 0.00041302329 s
 Time = 0.028085583 s
 Global linear momentum = (140.52285 -0.0014066907 -0.17467004)
 Global angular momentum = (-0.050660761 0.22869564 -842.58456)
 Simulation completed = 0.56171167%

Time Step =69
 deltaT = 0.00041302329 s
 Time = 0.028498607 s
 Global linear momentum = (142.59094 -0.0016807923 -0.17742681)
 Global angular momentum = (-0.05217895 0.23431057 -854.97598)
 Simulation completed = 0.56997214%

Time Step =70
 deltaT = 0.00041302329 s
 Time = 0.02891163 s
 Global linear momentum = (144.65905 -0.0020063209 -0.18017642)
 Global angular momentum = (-0.053691757 0.2399965 -867.36742)
 Simulation completed = 0.5782326%

Time Step =71
 deltaT = 0.00041302329 s
 Time = 0.029324653 s
 Global linear momentum = (146.72718 -0.0023923862 -0.18292535)
 Global angular momentum = (-0.055199335 0.24575505 -879.75885)
 Simulation completed = 0.58649307%

Time Step =72
 deltaT = 0.00041302329 s
 Time = 0.029737677 s
 Global linear momentum = (148.79533 -0.0028489971 -0.1856797)
 Global angular momentum = (-0.056702034 0.25158801 -892.1503)
 Simulation completed = 0.59475353%

Time Step =73
 deltaT = 0.00041302329 s
 Time = 0.0301507 s
 Global linear momentum = (150.8635 -0.003387021 -0.18844526)
 Global angular momentum = (-0.058200382 0.25749729 -904.54174)
 Simulation completed = 0.603014%

Time Step =74
 deltaT = 0.00041302329 s
 Time = 0.030563723 s
 Global linear momentum = (152.93169 -0.0040181108 -0.19122751)
 Global angular momentum = (-0.059695063 0.26348495 -916.93319)
 Simulation completed = 0.61127446%

Time Step =75
 deltaT = 0.00041302329 s
 Time = 0.030976746 s
 Global linear momentum = (154.99989 -0.0047545955 -0.19403161)
 Global angular momentum = (-0.061186893 0.26955326 -929.32465)
 Simulation completed = 0.61953493%

Time Step =76
 deltaT = 0.00041302329 s
 Time = 0.03138977 s
 Global linear momentum = (157.06812 -0.0056093365 -0.19686237)
 Global angular momentum = (-0.062676796 0.27570474 -941.7161)
 Simulation completed = 0.6277954%

Time Step =77
 deltaT = 0.00041302329 s
 Time = 0.031802793 s
 Global linear momentum = (159.13637 -0.0065955448 -0.19972415)
 Global angular momentum = (-0.064165768 0.28194211 -954.10755)
 Simulation completed = 0.63605586%

Time Step =78
 deltaT = 0.00041302329 s
 Time = 0.032215816 s
 Global linear momentum = (161.20464 -0.0077265605 -0.20262087)
 Global angular momentum = (-0.065654855 0.28826824 -966.49901)
 Simulation completed = 0.64431633%

Time Step =79
 deltaT = 0.00041302329 s
 Time = 0.03262884 s
 Global linear momentum = (163.27294 -0.009015592 -0.20555604)
 Global angular momentum = (-0.067145115 0.29468608 -978.89046)
 Simulation completed = 0.65257679%

Time Step =80
 deltaT = 0.00041302329 s
 Time = 0.033041863 s
 Global linear momentum = (165.34126 -0.010475417 -0.20853285)
 Global angular momentum = (-0.068637586 0.30119862 -991.2819)
 Simulation completed = 0.66083726%

Time Step =81
 deltaT = 0.00041302329 s
 Time = 0.033454886 s
 Global linear momentum = (167.40961 -0.012118047 -0.21155423)
 Global angular momentum = (-0.070133254 0.3078089 -1003.6733)
 Simulation completed = 0.66909772%

Time Step =82
 deltaT = 0.00041302329 s
 Time = 0.03386791 s
 Global linear momentum = (169.47798 -0.013954353 -0.21462287)
 Global angular momentum = (-0.071633028 0.31451998 -1016.0648)
 Simulation completed = 0.67735819%

Time Step =83
 deltaT = 0.00041302329 s
 Time = 0.034280933 s
 Global linear momentum = (171.54639 -0.015993655 -0.21774122)
 Global angular momentum = (-0.073137716 0.32133493 -1028.4562)
 Simulation completed = 0.68561866%

Time Step =84
 deltaT = 0.00041302329 s
 Time = 0.034693956 s
 Global linear momentum = (173.61484 -0.018243291 -0.22091151)
 Global angular momentum = (-0.074648005 0.32825672 -1040.8477)
 Simulation completed = 0.69387912%

Time Step =85
 deltaT = 0.00041302329 s
 Time = 0.035106979 s
 Global linear momentum = (175.68332 -0.020708146 -0.22413582)
 Global angular momentum = (-0.076164458 0.33528821 -1053.2391)
 Simulation completed = 0.70213959%

Time Step =86
 deltaT = 0.00041302329 s
 Time = 0.035520003 s
 Global linear momentum = (177.75183 -0.023390171 -0.22741617)
 Global angular momentum = (-0.077687505 0.34243207 -1065.6305)
 Simulation completed = 0.71040005%

Time Step =87
 deltaT = 0.00041302329 s
 Time = 0.035933026 s
 Global linear momentum = (179.82039 -0.026287896 -0.23075455)
 Global angular momentum = (-0.079217456 0.3496908 -1078.0219)
 Simulation completed = 0.71866052%

Time Step =88
 deltaT = 0.00041302329 s
 Time = 0.036346049 s
 Global linear momentum = (181.88898 -0.029395942 -0.234153)
 Global angular momentum = (-0.080754511 0.35706666 -1090.4134)
 Simulation completed = 0.72692098%

Time Step =89
 deltaT = 0.00041302329 s
 Time = 0.036759073 s
 Global linear momentum = (183.95762 -0.032704554 -0.23761363)
 Global angular momentum = (-0.082298791 0.36456175 -1102.8048)
 Simulation completed = 0.73518145%

Time Step =90
 deltaT = 0.00041302329 s
 Time = 0.037172096 s
 Global linear momentum = (186.0263 -0.036199168 -0.24113861)
 Global angular momentum = (-0.08385038 0.37217788 -1115.1963)
 Simulation completed = 0.74344192%

Time Step =91
 deltaT = 0.00041302329 s
 Time = 0.037585119 s
 Global linear momentum = (188.09503 -0.039860013 -0.24473024)
 Global angular momentum = (-0.085409367 0.37991659 -1127.5877)
 Simulation completed = 0.75170238%

Time Step =92
 deltaT = 0.00041302329 s
 Time = 0.037998142 s
 Global linear momentum = (190.1638 -0.04366178 -0.24839096)
 Global angular momentum = (-0.086975909 0.38777913 -1139.9792)
 Simulation completed = 0.75996285%

Time Step =93
 deltaT = 0.00041302329 s
 Time = 0.038411166 s
 Global linear momentum = (192.23261 -0.047573357 -0.25212345)
 Global angular momentum = (-0.088550292 0.39576646 -1152.3708)
 Simulation completed = 0.76822331%

Time Step =94
 deltaT = 0.00041302329 s
 Time = 0.038824189 s
 Global linear momentum = (194.30145 -0.051557639 -0.2559306)
 Global angular momentum = (-0.090133007 0.40387923 -1164.7624)
 Simulation completed = 0.77648378%

Time Step =95
 deltaT = 0.00041302329 s
 Time = 0.039237212 s
 Global linear momentum = (196.37033 -0.05557144 -0.25981551)
 Global angular momentum = (-0.091724828 0.41211785 -1177.154)
 Simulation completed = 0.78474424%

Time Step =96
 deltaT = 0.00041302329 s
 Time = 0.039650236 s
 Global linear momentum = (198.43925 -0.059565499 -0.26378151)
 Global angular momentum = (-0.093326895 0.42048245 -1189.5458)
 Simulation completed = 0.79300471%

Time Step =97
 deltaT = 0.00041302329 s
 Time = 0.040063259 s
 Global linear momentum = (200.50818 -0.063484588 -0.26783212)
 Global angular momentum = (-0.094940797 0.4289729 -1201.9376)
 Simulation completed = 0.80126518%

Time Step =98
 deltaT = 0.00041302329 s
 Time = 0.040476282 s
 Global linear momentum = (202.57712 -0.067267744 -0.27197104)
 Global angular momentum = (-0.096568653 0.4375888 -1214.3295)
 Simulation completed = 0.80952564%

Time Step =99
 deltaT = 0.00041302329 s
 Time = 0.040889305 s
 Global linear momentum = (204.64607 -0.070848614 -0.27620215)
 Global angular momentum = (-0.098213191 0.4463295 -1226.7216)
 Simulation completed = 0.81778611%

Time Step =100
 deltaT = 0.00041302329 s
 Time = 0.041302329 s
 Global linear momentum = (206.715 -0.074155917 -0.28052948)
 Global angular momentum = (-0.099877813 0.45519416 -1239.1138)
 Simulation completed = 0.82604657%

Time Step =101
 deltaT = 0.00041302329 s
 Time = 0.041715352 s
 Global linear momentum = (208.7839 -0.077114036 -0.28495713)
 Global angular momentum = (-0.10156666 0.46418173 -1251.5062)
 Simulation completed = 0.83430704%

Time Step =102
 deltaT = 0.00041302329 s
 Time = 0.042128375 s
 Global linear momentum = (210.85275 -0.079643726 -0.28948921)
 Global angular momentum = (-0.10328464 0.47329101 -1263.8988)
 Simulation completed = 0.8425675%

Time Step =103
 deltaT = 0.00041302329 s
 Time = 0.042541399 s
 Global linear momentum = (212.92152 -0.081662942 -0.29412976)
 Global angular momentum = (-0.10503749 0.48252065 -1276.2915)
 Simulation completed = 0.85082797%

Time Step =104
 deltaT = 0.00041302329 s
 Time = 0.042954422 s
 Global linear momentum = (214.9902 -0.083087774 -0.29888269)
 Global angular momentum = (-0.10683174 0.49186918 -1288.6845)
 Simulation completed = 0.85908844%

Time Step =105
 deltaT = 0.00041302329 s
 Time = 0.043367445 s
 Global linear momentum = (217.05874 -0.083833481 -0.30375168)
 Global angular momentum = (-0.10867475 0.50133504 -1301.0778)
 Simulation completed = 0.8673489%

Time Step =106
 deltaT = 0.00041302329 s
 Time = 0.043780468 s
 Global linear momentum = (219.12711 -0.083815619 -0.30874008)
 Global angular momentum = (-0.1105746 0.51091661 -1313.4713)
 Simulation completed = 0.87560937%

Time Step =107
 deltaT = 0.00041302329 s
 Time = 0.044193492 s
 Global linear momentum = (221.19528 -0.08295123 -0.31385082)
 Global angular momentum = (-0.1125401 0.52061227 -1325.8651)
 Simulation completed = 0.88386983%

Time Step =108
 deltaT = 0.00041302329 s
 Time = 0.044606515 s
 Global linear momentum = (223.2632 -0.08116009 -0.3190863)
 Global angular momentum = (-0.11458066 0.53042042 -1338.2593)
 Simulation completed = 0.8921303%

Time Step =109
 deltaT = 0.00041302329 s
 Time = 0.045019538 s
 Global linear momentum = (225.33082 -0.078365996 -0.32444824)
 Global angular momentum = (-0.11670618 0.54033954 -1350.6537)
 Simulation completed = 0.90039076%

Time Step =110
 deltaT = 0.00041302329 s
 Time = 0.045432562 s
 Global linear momentum = (227.39809 -0.07449805 -0.32993759)
 Global angular momentum = (-0.1189269 0.5503682 -1363.0484)
 Simulation completed = 0.90865123%

Time Step =111
 deltaT = 0.00041302329 s
 Time = 0.045845585 s
 Global linear momentum = (229.46496 -0.069491947 -0.33555444)
 Global angular momentum = (-0.12125325 0.5605051 -1375.4434)
 Simulation completed = 0.9169117%

Time Step =112
 deltaT = 0.00041302329 s
 Time = 0.046258608 s
 Global linear momentum = (231.53134 -0.063291221 -0.34129792)
 Global angular momentum = (-0.12369563 0.57074918 -1387.8388)
 Simulation completed = 0.92517216%

Time Step =113
 deltaT = 0.00041302329 s
 Time = 0.046671631 s
 Global linear momentum = (233.59719 -0.055848438 -0.34716607)
 Global angular momentum = (-0.12626425 0.58109959 -1400.2345)
 Simulation completed = 0.93343263%

Time Step =114
 deltaT = 0.00041302329 s
 Time = 0.047084655 s
 Global linear momentum = (235.66242 -0.047126319 -0.35315583)
 Global angular momentum = (-0.12896886 0.59155579 -1412.6304)
 Simulation completed = 0.94169309%

Time Step =115
 deltaT = 0.00041302329 s
 Time = 0.047497678 s
 Global linear momentum = (237.72695 -0.037098754 -0.35926292)
 Global angular momentum = (-0.13181853 0.60211758 -1425.0266)
 Simulation completed = 0.94995356%

Time Step =116
 deltaT = 0.00041302329 s
 Time = 0.047910701 s
 Global linear momentum = (239.7907 -0.025751713 -0.36548182)
 Global angular momentum = (-0.13482142 0.61278513 -1437.4231)
 Simulation completed = 0.95821402%

Time Step =117
 deltaT = 0.00041302329 s
 Time = 0.048323725 s
 Global linear momentum = (241.85358 -0.013084017 -0.37180578)
 Global angular momentum = (-0.13798452 0.62355903 -1449.8197)
 Simulation completed = 0.96647449%

Time Step =118
 deltaT = 0.00041302329 s
 Time = 0.048736748 s
 Global linear momentum = (243.9155 0.0008920252 -0.37822682)
 Global angular momentum = (-0.14131343 0.63444034 -1462.2165)
 Simulation completed = 0.97473496%

Time Step =119
 deltaT = 0.00041302329 s
 Time = 0.049149771 s
 Global linear momentum = (245.97635 0.016150153 -0.38473579)
 Global angular momentum = (-0.14481213 0.64543058 -1474.6135)
 Simulation completed = 0.98299542%

Time Step =120
 deltaT = 0.00041302329 s
 Time = 0.049562794 s
 Global linear momentum = (248.03603 0.03264984 -0.39132243)
 Global angular momentum = (-0.14848277 0.65653181 -1487.0104)
 Simulation completed = 0.99125589%

Time Step =121
 deltaT = 0.00041302329 s
 Time = 0.049975818 s
 Global linear momentum = (250.09443 0.050336163 -0.39797547)
 Global angular momentum = (-0.15232549 0.66774661 -1499.4074)
 Simulation completed = 0.99951635%

Time Step =122
 deltaT = 0.00041302329 s
 Time = 0.050388841 s
 Global linear momentum = (252.15143 0.069139838 -0.4046828)
 Global angular momentum = (-0.15633827 0.67907808 -1511.8043)
 Simulation completed = 1.0077768%

Time Step =123
 deltaT = 0.00041302329 s
 Time = 0.050801864 s
 Global linear momentum = (254.20692 0.088977434 -0.41143163)
 Global angular momentum = (-0.1605168 0.69052986 -1524.201)
 Simulation completed = 1.0160373%

Time Step =124
 deltaT = 0.00041302329 s
 Time = 0.051214888 s
 Global linear momentum = (256.26076 0.10975175 -0.41820869)
 Global angular momentum = (-0.16485442 0.70210609 -1536.5975)
 Simulation completed = 1.0242978%

Time Step =125
 deltaT = 0.00041302329 s
 Time = 0.051627911 s
 Global linear momentum = (258.31284 0.13135239 -0.42500048)
 Global angular momentum = (-0.16934208 0.7138114 -1548.9936)
 Simulation completed = 1.0325582%

Time Step =126
 deltaT = 0.00041302329 s
 Time = 0.052040934 s
 Global linear momentum = (260.36303 0.15365639 -0.43179352)
 Global angular momentum = (-0.17396836 0.72565087 -1561.3893)
 Simulation completed = 1.0408187%

Time Step =127
 deltaT = 0.00041302329 s
 Time = 0.052453957 s
 Global linear momentum = (262.41118 0.17652914 -0.43857463)
 Global angular momentum = (-0.17871954 0.73762996 -1573.7845)
 Simulation completed = 1.0490791%

Time Step =128
 deltaT = 0.00041302329 s
 Time = 0.052866981 s
 Global linear momentum = (264.45715 0.19982527 -0.44533123)
 Global angular momentum = (-0.18357969 0.74975447 -1586.1791)
 Simulation completed = 1.0573396%

Time Step =129
 deltaT = 0.00041302329 s
 Time = 0.053280004 s
 Global linear momentum = (266.50082 0.22338976 -0.45205164)
 Global angular momentum = (-0.18853091 0.76203045 -1598.573)
 Simulation completed = 1.0656001%

Time Step =130
 deltaT = 0.00041302329 s
 Time = 0.053693027 s
 Global linear momentum = (268.54203 0.24705902 -0.45872541)
 Global angular momentum = (-0.19355346 0.77446409 -1610.966)
 Simulation completed = 1.0738605%

Time Step =131
 deltaT = 0.00041302329 s
 Time = 0.054106051 s
 Global linear momentum = (270.58063 0.27066218 -0.46534363)
 Global angular momentum = (-0.19862611 0.78706165 -1623.3582)
 Simulation completed = 1.082121%

Time Step =132
 deltaT = 0.00041302329 s
 Time = 0.054519074 s
 Global linear momentum = (272.61648 0.29402224 -0.47189919)
 Global angular momentum = (-0.20372643 0.79982934 -1635.7494)
 Simulation completed = 1.0903815%

Time Step =133
 deltaT = 0.00041302329 s
 Time = 0.054932097 s
 Global linear momentum = (274.64943 0.31695743 -0.47838714)
 Global angular momentum = (-0.20883114 0.8127732 -1648.1396)
 Simulation completed = 1.0986419%

Time Step =134
 deltaT = 0.00041302329 s
 Time = 0.05534512 s
 Global linear momentum = (276.67931 0.33928237 -0.48480486)
 Global angular momentum = (-0.2139165 0.82589896 -1660.5286)
 Simulation completed = 1.1069024%

Time Step =135
 deltaT = 0.00041302329 s
 Time = 0.055758144 s
 Global linear momentum = (278.70597 0.3608094 -0.49115237)
 Global angular momentum = (-0.21895876 0.83921191 -1672.9164)
 Simulation completed = 1.1151629%

Time Step =136
 deltaT = 0.00041302329 s
 Time = 0.056171167 s
 Global linear momentum = (280.72925 0.38134974 -0.49743246)
 Global angular momentum = (-0.22393459 0.85271681 -1685.303)
 Simulation completed = 1.1234233%

Time Step =137
 deltaT = 0.00041302329 s
 Time = 0.05658419 s
 Global linear momentum = (282.74898 0.40071465 -0.50365087)
 Global angular momentum = (-0.22882152 0.86641768 -1697.6883)
 Simulation completed = 1.1316838%

Time Step =138
 deltaT = 0.00041302329 s
 Time = 0.056997214 s
 Global linear momentum = (284.765 0.4187165 -0.50981638)
 Global angular momentum = (-0.23359842 0.88031772 -1710.0723)
 Simulation completed = 1.1399443%

Time Step =139
 deltaT = 0.00041302329 s
 Time = 0.057410237 s
 Global linear momentum = (286.77715 0.4351698 -0.51594081)
 Global angular momentum = (-0.23824594 0.89441916 -1722.4549)
 Simulation completed = 1.1482047%

Time Step =140
 deltaT = 0.00041302329 s
 Time = 0.05782326 s
 Global linear momentum = (288.78524 0.4498921 -0.52203906)
 Global angular momentum = (-0.24274696 0.90872315 -1734.8363)
 Simulation completed = 1.1564652%

Time Step =141
 deltaT = 0.00041302329 s
 Time = 0.058236283 s
 Global linear momentum = (290.78911 0.46270483 -0.52812897)
 Global angular momentum = (-0.247087 0.9232296 -1747.2163)
 Simulation completed = 1.1647257%

Time Step =142
 deltaT = 0.00041302329 s
 Time = 0.058649307 s
 Global linear momentum = (292.78857 0.47343405 -0.53423121)
 Global angular momentum = (-0.25125459 0.93793713 -1759.595)
 Simulation completed = 1.1729861%

Time Step =143
 deltaT = 0.00041302329 s
 Time = 0.05906233 s
 Global linear momentum = (294.78345 0.48191106 -0.54036905)
 Global angular momentum = (-0.25524163 0.95284293 -1771.9725)
 Simulation completed = 1.1812466%

Time Step =144
 deltaT = 0.00041302329 s
 Time = 0.059475353 s
 Global linear momentum = (296.77355 0.48797302 -0.54656809)
 Global angular momentum = (-0.25904364 0.96794271 -1784.3489)
 Simulation completed = 1.1895071%

Time Step =145
 deltaT = 0.00041302329 s
 Time = 0.059888377 s
 Global linear momentum = (298.75869 0.49146335 -0.55285593)
 Global angular momentum = (-0.26266001 0.98323061 -1796.7242)
 Simulation completed = 1.1977675%

Time Step =146
 deltaT = 0.00041302329 s
 Time = 0.0603014 s
 Global linear momentum = (300.73867 0.49223219 -0.55926176)
 Global angular momentum = (-0.26609419 0.99869916 -1809.0985)
 Simulation completed = 1.206028%

Time Step =147
 deltaT = 0.00041302329 s
 Time = 0.060714423 s
 Global linear momentum = (302.71329 0.49013667 -0.56581596)
 Global angular momentum = (-0.2693537 1.0143393 -1821.4719)
 Simulation completed = 1.2142885%

Time Step =148
 deltaT = 0.00041302329 s
 Time = 0.061127446 s
 Global linear momentum = (304.68235 0.4850412 -0.57254955)
 Global angular momentum = (-0.27245023 1.0301402 -1833.8445)
 Simulation completed = 1.2225489%

Time Step =149
 deltaT = 0.00041302329 s
 Time = 0.06154047 s
 Global linear momentum = (306.64564 0.47681771 -0.57949372)
 Global angular momentum = (-0.27539954 1.0460895 -1846.2166)
 Simulation completed = 1.2308094%

Time Step =150
 deltaT = 0.00041302329 s
 Time = 0.061953493 s
 Global linear momentum = (308.60295 0.46534575 -0.58667927)
 Global angular momentum = (-0.27822132 1.0621732 -1858.5882)
 Simulation completed = 1.2390699%

Time Step =151
 deltaT = 0.00041302329 s
 Time = 0.062366516 s
 Global linear momentum = (310.55406 0.45051272 -0.59413602)
 Global angular momentum = (-0.28093899 1.0783757 -1870.9595)
 Simulation completed = 1.2473303%

Time Step =152
 deltaT = 0.00041302329 s
 Time = 0.06277954 s
 Global linear momentum = (312.49875 0.43221393 -0.60189223)
 Global angular momentum = (-0.28357938 1.0946799 -1883.3307)
 Simulation completed = 1.2555908%

Time Step =153
 deltaT = 0.00041302329 s
 Time = 0.063192563 s
 Global linear momentum = (314.4368 0.41035274 -0.60997407)
 Global angular momentum = (-0.2861724 1.1110673 -1895.7019)
 Simulation completed = 1.2638513%

Time Step =154
 deltaT = 0.00041302329 s
 Time = 0.063605586 s
 Global linear momentum = (316.36798 0.38484066 -0.61840498)
 Global angular momentum = (-0.28875058 1.1275181 -1908.0733)
 Simulation completed = 1.2721117%

Time Step =155
 deltaT = 0.00041302329 s
 Time = 0.064018609 s
 Global linear momentum = (318.29206 0.35559747 -0.62720521)
 Global angular momentum = (-0.29134861 1.1440112 -1920.4452)
 Simulation completed = 1.2803722%

Time Step =156
 deltaT = 0.00041302329 s
 Time = 0.064431633 s
 Global linear momentum = (320.20882 0.32255129 -0.63639125)
 Global angular momentum = (-0.29400273 1.1605245 -1932.8176)
 Simulation completed = 1.2886327%

Time Step =157
 deltaT = 0.00041302329 s
 Time = 0.064844656 s
 Global linear momentum = (322.11801 0.28563877 -0.64597543)
 Global angular momentum = (-0.2967502 1.1770349 -1945.1909)
 Simulation completed = 1.2968931%

Time Step =158
 deltaT = 0.00041302329 s
 Time = 0.065257679 s
 Global linear momentum = (324.01941 0.24480513 -0.65596545)
 Global angular momentum = (-0.29962866 1.1935186 -1957.5651)
 Simulation completed = 1.3051536%

Time Step =159
 deltaT = 0.00041302329 s
 Time = 0.065670703 s
 Global linear momentum = (325.91279 0.20000436 -0.66636411)
 Global angular momentum = (-0.30267545 1.209951 -1969.9405)
 Simulation completed = 1.3134141%

Time Step =160
 deltaT = 0.00041302329 s
 Time = 0.066083726 s
 Global linear momentum = (327.79793 0.15119926 -0.67716898)
 Global angular momentum = (-0.30592698 1.2263071 -1982.3171)
 Simulation completed = 1.3216745%

Time Step =161
 deltaT = 0.00041302329 s
 Time = 0.066496749 s
 Global linear momentum = (329.6746 0.098361638 -0.68837226)
 Global angular momentum = (-0.30941806 1.2425617 -1994.6953)
 Simulation completed = 1.329935%

Time Step =162
 deltaT = 0.00041302329 s
 Time = 0.066909772 s
 Global linear momentum = (331.54261 0.041472339 -0.69996063)
 Global angular momentum = (-0.31318125 1.2586893 -2007.0752)
 Simulation completed = 1.3381954%

Time Step =163
 deltaT = 0.00041302329 s
 Time = 0.067322796 s
 Global linear momentum = (333.40173 -0.019478656 -0.71191526)
 Global angular momentum = (-0.3172462 1.2746645 -2019.4569)
 Simulation completed = 1.3464559%

Time Step =164
 deltaT = 0.00041302329 s
 Time = 0.067735819 s
 Global linear momentum = (335.25179 -0.0844922 -0.72421188)
 Global angular momentum = (-0.32163914 1.2904619 -2031.8406)
 Simulation completed = 1.3547164%

Time Step =165
 deltaT = 0.00041302329 s
 Time = 0.068148842 s
 Global linear momentum = (337.09261 -0.15356 -0.73682093)
 Global angular momentum = (-0.32638224 1.3060567 -2044.2263)
 Simulation completed = 1.3629768%

Time Step =166
 deltaT = 0.00041302329 s
 Time = 0.068561866 s
 Global linear momentum = (338.92403 -0.22666466 -0.74970785)
 Global angular momentum = (-0.33149322 1.3214244 -2056.6144)
 Simulation completed = 1.3712373%

Time Step =167
 deltaT = 0.00041302329 s
 Time = 0.068974889 s
 Global linear momentum = (340.7459 -0.30377984 -0.76283335)
 Global angular momentum = (-0.33698486 1.3365411 -2069.0048)
 Simulation completed = 1.3794978%

Time Step =168
 deltaT = 0.00041302329 s
 Time = 0.069387912 s
 Global linear momentum = (342.55811 -0.38487043 -0.77615393)
 Global angular momentum = (-0.34286471 1.3513836 -2081.3977)
 Simulation completed = 1.3877582%

Time Step =169
 deltaT = 0.00041302329 s
 Time = 0.069800935 s
 Global linear momentum = (344.36056 -0.46989288 -0.78962228)
 Global angular momentum = (-0.34913483 1.3659294 -2093.7933)
 Simulation completed = 1.3960187%

Time Step =170
 deltaT = 0.00041302329 s
 Time = 0.070213959 s
 Global linear momentum = (346.15319 -0.55879548 -0.80318797)
 Global angular momentum = (-0.35579162 1.3801573 -2106.1915)
 Simulation completed = 1.4042792%

Time Step =171
 deltaT = 0.00041302329 s
 Time = 0.070626982 s
 Global linear momentum = (347.93595 -0.6515189 -0.81679798)
 Global angular momentum = (-0.36282575 1.3940466 -2118.5926)
 Simulation completed = 1.4125396%

Time Step =172
 deltaT = 0.00041302329 s
 Time = 0.071040005 s
 Global linear momentum = (349.70884 -0.7479967 -0.83039747)
 Global angular momentum = (-0.37022224 1.407578 -2130.9967)
 Simulation completed = 1.4208001%

Time Step =173
 deltaT = 0.00041302329 s
 Time = 0.071453029 s
 Global linear momentum = (351.4719 -0.84815596 -0.84393047)
 Global angular momentum = (-0.37796054 1.420733 -2143.4038)
 Simulation completed = 1.4290606%

Time Step =174
 deltaT = 0.00041302329 s
 Time = 0.071866052 s
 Global linear momentum = (353.22518 -0.951918 -0.85734066)
 Global angular momentum = (-0.3860148 1.4334944 -2155.814)
 Simulation completed = 1.437321%

Time Step =175
 deltaT = 0.00041302329 s
 Time = 0.072279075 s
 Global linear momentum = (354.9688 -1.0591992 -0.87057218)
 Global angular momentum = (-0.39435421 1.4458458 -2168.2275)
 Simulation completed = 1.4455815%

Time Step =176
 deltaT = 0.00041302329 s
 Time = 0.072692098 s
 Global linear momentum = (356.7029 -1.1699119 -0.88357039)
 Global angular momentum = (-0.40294341 1.4577723 -2180.6444)
 Simulation completed = 1.453842%

Time Step =177
 deltaT = 0.00041302329 s
 Time = 0.073105122 s
 Global linear momentum = (358.42769 -1.2839651 -0.89628266)
 Global angular momentum = (-0.41174302 1.4692596 -2193.0648)
 Simulation completed = 1.4621024%

Time Step =178
 deltaT = 0.00041302329 s
 Time = 0.073518145 s
 Global linear momentum = (360.1434 -1.401266 -0.90865918)
 Global angular momentum = (-0.42071021 1.4802948 -2205.4888)
 Simulation completed = 1.4703629%

Time Step =179
 deltaT = 0.00041302329 s
 Time = 0.073931168 s
 Global linear momentum = (361.85033 -1.5217203 -0.92065366)
 Global angular momentum = (-0.42979941 1.4908656 -2217.9167)
 Simulation completed = 1.4786234%

Time Step =180
 deltaT = 0.00041302329 s
 Time = 0.074344192 s
 Global linear momentum = (363.54881 -1.6452338 -0.93222404)
 Global angular momentum = (-0.43896301 1.5009608 -2230.3485)
 Simulation completed = 1.4868838%

Time Step =181
 deltaT = 0.00041302329 s
 Time = 0.074757215 s
 Global linear momentum = (365.23923 -1.771713 -0.94333319)
 Global angular momentum = (-0.44815212 1.5105698 -2242.7845)
 Simulation completed = 1.4951443%

Time Step =182
 deltaT = 0.00041302329 s
 Time = 0.075170238 s
 Global linear momentum = (366.92205 -1.9010666 -0.9539494)
 Global angular momentum = (-0.45731743 1.5196829 -2255.2249)
 Simulation completed = 1.5034048%

Time Step =183
 deltaT = 0.00041302329 s
 Time = 0.075583261 s
 Global linear momentum = (368.59776 -2.0332061 -0.96404702)
 Global angular momentum = (-0.46640999 1.5282908 -2267.6699)
 Simulation completed = 1.5116652%

Time Step =184
 deltaT = 0.00041302329 s
 Time = 0.075996285 s
 Global linear momentum = (370.26691 -2.1680468 -0.97360677)
 Global angular momentum = (-0.47538209 1.5363848 -2280.1197)
 Simulation completed = 1.5199257%

Time Step =185
 deltaT = 0.00041302329 s
 Time = 0.076409308 s
 Global linear momentum = (371.9301 -2.3055087 -0.98261621)
 Global angular momentum = (-0.4841881 1.5439566 -2292.5747)
 Simulation completed = 1.5281862%

Time Step =186
 deltaT = 0.00041302329 s
 Time = 0.076822331 s
 Global linear momentum = (373.588 -2.4455173 -0.99106994)
 Global angular momentum = (-0.49278527 1.5509979 -2305.0351)
 Simulation completed = 1.5364466%

Time Step =187
 deltaT = 0.00041302329 s
 Time = 0.077235355 s
 Global linear momentum = (375.2413 -2.5880043 -0.99896978)
 Global angular momentum = (-0.50113451 1.557501 -2317.5013)
 Simulation completed = 1.5447071%

Time Step =188
 deltaT = 0.00041302329 s
 Time = 0.077648378 s
 Global linear momentum = (376.89078 -2.7329079 -1.0063249)
 Global angular momentum = (-0.50920114 1.5634578 -2329.9736)
 Simulation completed = 1.5529676%

Time Step =189
 deltaT = 0.00041302329 s
 Time = 0.078061401 s
 Global linear momentum = (378.53725 -2.8801736 -1.0131516)
 Global angular momentum = (-0.51695556 1.5688606 -2342.4524)
 Simulation completed = 1.561228%

Time Step =190
 deltaT = 0.00041302329 s
 Time = 0.078474424 s
 Global linear momentum = (380.18157 -3.0297541 -1.0194736)
 Global angular momentum = (-0.52437387 1.5737012 -2354.9382)
 Simulation completed = 1.5694885%

Time Step =191
 deltaT = 0.00041302329 s
 Time = 0.078887448 s
 Global linear momentum = (381.82464 -3.1816097 -1.0253215)
 Global angular momentum = (-0.53143834 1.5779715 -2367.4313)
 Simulation completed = 1.577749%

Time Step =192
 deltaT = 0.00041302329 s
 Time = 0.079300471 s
 Global linear momentum = (383.46743 -3.3357083 -1.0307325)
 Global angular momentum = (-0.53813792 1.5816627 -2379.9323)
 Simulation completed = 1.5860094%

Time Step =193
 deltaT = 0.00041302329 s
 Time = 0.079713494 s
 Global linear momentum = (385.11094 -3.4920252 -1.0357503)
 Global angular momentum = (-0.54446846 1.5847661 -2392.4416)
 Simulation completed = 1.5942699%

Time Step =194
 deltaT = 0.00041302329 s
 Time = 0.080126518 s
 Global linear momentum = (386.75619 -3.6505428 -1.0404244)
 Global angular momentum = (-0.55043305 1.5872723 -2404.9597)
 Simulation completed = 1.6025304%

Time Step =195
 deltaT = 0.00041302329 s
 Time = 0.080539541 s
 Global linear momentum = (388.40428 -3.8112503 -1.0448097)
 Global angular momentum = (-0.55604202 1.5891715 -2417.4873)
 Simulation completed = 1.6107908%

Time Step =196
 deltaT = 0.00041302329 s
 Time = 0.080952564 s
 Global linear momentum = (390.05631 -3.9741431 -1.048966)
 Global angular momentum = (-0.56131301 1.5904536 -2430.0248)
 Simulation completed = 1.6190513%

Time Step =197
 deltaT = 0.00041302329 s
 Time = 0.081365587 s
 Global linear momentum = (391.71342 -4.1392222 -1.0529572)
 Global angular momentum = (-0.56627086 1.5911079 -2442.5728)
 Simulation completed = 1.6273117%

Time Step =198
 deltaT = 0.00041302329 s
 Time = 0.081778611 s
 Global linear momentum = (393.3768 -4.3064936 -1.0568511)
 Global angular momentum = (-0.57094731 1.5911232 -2455.132)
 Simulation completed = 1.6355722%

Time Step =199
 deltaT = 0.00041302329 s
 Time = 0.082191634 s
 Global linear momentum = (395.04764 -4.4759675 -1.0607181)
 Global angular momentum = (-0.57538075 1.5904881 -2467.7029)
 Simulation completed = 1.6438327%

Time Step =200
 deltaT = 0.00041302329 s
 Time = 0.082604657 s
 Global linear momentum = (396.72716 -4.6476572 -1.0646311)
 Global angular momentum = (-0.57961576 1.5891904 -2480.2862)
 Simulation completed = 1.6520931%

Time Step =201
 deltaT = 0.00041302329 s
 Time = 0.083017681 s
 Global linear momentum = (398.41662 -4.8215785 -1.0686647)
 Global angular momentum = (-0.58370256 1.587218 -2492.8825)
 Simulation completed = 1.6603536%

Time Step =202
 deltaT = 0.00041302329 s
 Time = 0.083430704 s
 Global linear momentum = (400.11726 -4.9977488 -1.0728941)
 Global angular momentum = (-0.58769641 1.5845581 -2505.4924)
 Simulation completed = 1.6686141%

Time Step =203
 deltaT = 0.00041302329 s
 Time = 0.083843727 s
 Global linear momentum = (401.83036 -5.176186 -1.0773951)
 Global angular momentum = (-0.59165693 1.5811981 -2518.1166)
 Simulation completed = 1.6768745%

Time Step =204
 deltaT = 0.00041302329 s
 Time = 0.08425675 s
 Global linear momentum = (403.55719 -5.3569078 -1.0822432)
 Global angular momentum = (-0.59564732 1.5771249 -2530.7558)
 Simulation completed = 1.685135%

Time Step =205
 deltaT = 0.00041302329 s
 Time = 0.084669774 s
 Global linear momentum = (405.29905 -5.5399311 -1.0875128)
 Global angular momentum = (-0.5997336 1.5723256 -2543.4105)
 Simulation completed = 1.6933955%

Time Step =206
 deltaT = 0.00041302329 s
 Time = 0.085082797 s
 Global linear momentum = (407.05723 -5.7252705 -1.0932772)
 Global angular momentum = (-0.60398373 1.5667871 -2556.0815)
 Simulation completed = 1.7016559%

Time Step =207
 deltaT = 0.00041302329 s
 Time = 0.08549582 s
 Global linear momentum = (408.83301 -5.9129384 -1.0996076)
 Global angular momentum = (-0.60846674 1.5604969 -2568.7693)
 Simulation completed = 1.7099164%

Time Step =208
 deltaT = 0.00041302329 s
 Time = 0.085908844 s
 Global linear momentum = (410.62769 -6.1029441 -1.1065729)
 Global angular momentum = (-0.6132519 1.5534423 -2581.4746)
 Simulation completed = 1.7181769%

Time Step =209
 deltaT = 0.00041302329 s
 Time = 0.086321867 s
 Global linear momentum = (412.44254 -6.2952931 -1.1142396)
 Global angular momentum = (-0.6184078 1.5456112 -2594.198)
 Simulation completed = 1.7264373%

Time Step =210
 deltaT = 0.00041302329 s
 Time = 0.08673489 s
 Global linear momentum = (414.27884 -6.489987 -1.122671)
 Global angular momentum = (-0.62400152 1.5369921 -2606.9402)
 Simulation completed = 1.7346978%

Time Step =211
 deltaT = 0.00041302329 s
 Time = 0.087147913 s
 Global linear momentum = (416.13785 -6.6870233 -1.1319276)
 Global angular momentum = (-0.63009782 1.5275739 -2619.7016)
 Simulation completed = 1.7429583%

Time Step =212
 deltaT = 0.00041302329 s
 Time = 0.087560937 s
 Global linear momentum = (418.02082 -6.8863946 -1.1420664)
 Global angular momentum = (-0.63675837 1.5173462 -2632.4829)
 Simulation completed = 1.7512187%

Time Step =213
 deltaT = 0.00041302329 s
 Time = 0.08797396 s
 Global linear momentum = (419.92899 -7.0880896 -1.1531411)
 Global angular momentum = (-0.644041 1.5062997 -2645.2846)
 Simulation completed = 1.7594792%

Time Step =214
 deltaT = 0.00041302329 s
 Time = 0.088386983 s
 Global linear momentum = (421.86357 -7.2920923 -1.1652022)
 Global angular momentum = (-0.65199909 1.4944256 -2658.1073)
 Simulation completed = 1.7677397%

Time Step =215
 deltaT = 0.00041302329 s
 Time = 0.088800007 s
 Global linear momentum = (423.82576 -7.4983827 -1.1782968)
 Global angular momentum = (-0.66068098 1.4817163 -2670.9514)
 Simulation completed = 1.7760001%

Time Step =216
 deltaT = 0.00041302329 s
 Time = 0.08921303 s
 Global linear momentum = (425.81673 -7.7069369 -1.1924691)
 Global angular momentum = (-0.67012951 1.4681652 -2683.8176)
 Simulation completed = 1.7842606%

Time Step =217
 deltaT = 0.00041302329 s
 Time = 0.089626053 s
 Global linear momentum = (427.83765 -7.9177278 -1.20776)
 Global angular momentum = (-0.68038159 1.453767 -2696.7062)
 Simulation completed = 1.7925211%

Time Step =218
 deltaT = 0.00041302329 s
 Time = 0.090039076 s
 Global linear momentum = (429.88964 -8.1307251 -1.2242079)
 Global angular momentum = (-0.69146795 1.4385172 -2709.6178)
 Simulation completed = 1.8007815%

Time Step =219
 deltaT = 0.00041302329 s
 Time = 0.0904521 s
 Global linear momentum = (431.97381 -8.3458965 -1.2418487)
 Global angular momentum = (-0.7034129 1.4224129 -2722.5527)
 Simulation completed = 1.809042%

Time Step =220
 deltaT = 0.00041302329 s
 Time = 0.090865123 s
 Global linear momentum = (434.09123 -8.563208 -1.2607161)
 Global angular momentum = (-0.71623426 1.4054521 -2735.5113)
 Simulation completed = 1.8173025%

Time Step =221
 deltaT = 0.00041302329 s
 Time = 0.091278146 s
 Global linear momentum = (436.24296 -8.7826245 -1.2808421)
 Global angular momentum = (-0.72994338 1.3876343 -2748.4942)
 Simulation completed = 1.8255629%

Time Step =222
 deltaT = 0.00041302329 s
 Time = 0.09169117 s
 Global linear momentum = (438.43001 -9.0041109 -1.3022571)
 Global angular momentum = (-0.74454519 1.3689601 -2761.5015)
 Simulation completed = 1.8338234%

Time Step =223
 deltaT = 0.00041302329 s
 Time = 0.092104193 s
 Global linear momentum = (440.65339 -9.2276324 -1.3249903)
 Global angular momentum = (-0.76003846 1.3494315 -2774.5338)
 Simulation completed = 1.8420839%

Time Step =224
 deltaT = 0.00041302329 s
 Time = 0.092517216 s
 Global linear momentum = (442.91406 -9.4531557 -1.3490702)
 Global angular momentum = (-0.77641603 1.3290515 -2787.5912)
 Simulation completed = 1.8503443%

Time Step =225
 deltaT = 0.00041302329 s
 Time = 0.092930239 s
 Global linear momentum = (445.21294 -9.6806492 -1.3745248)
 Global angular momentum = (-0.7936652 1.3078244 -2800.6742)
 Simulation completed = 1.8586048%

Time Step =226
 deltaT = 0.00041302329 s
 Time = 0.093343263 s
 Global linear momentum = (447.55095 -9.9100842 -1.401382)
 Global angular momentum = (-0.81176818 1.2857554 -2813.783)
 Simulation completed = 1.8668653%

Time Step =227
 deltaT = 0.00041302329 s
 Time = 0.093756286 s
 Global linear momentum = (449.92893 -10.141435 -1.42967)
 Global angular momentum = (-0.83070255 1.2628511 -2826.9178)
 Simulation completed = 1.8751257%

Time Step =228
 deltaT = 0.00041302329 s
 Time = 0.094169309 s
 Global linear momentum = (452.34774 -10.37468 -1.4594171)
 Global angular momentum = (-0.85044186 1.2391188 -2840.079)
 Simulation completed = 1.8833862%

Time Step =229
 deltaT = 0.00041302329 s
 Time = 0.094582333 s
 Global linear momentum = (454.80816 -10.609803 -1.4906526)
 Global angular momentum = (-0.87095618 1.2145666 -2853.2668)
 Simulation completed = 1.8916467%

Time Step =230
 deltaT = 0.00041302329 s
 Time = 0.094995356 s
 Global linear momentum = (457.31097 -10.846789 -1.5234063)
 Global angular momentum = (-0.89221278 1.1892037 -2866.4814)
 Simulation completed = 1.8999071%

Time Step =231
 deltaT = 0.00041302329 s
 Time = 0.095408379 s
 Global linear momentum = (459.8569 -11.085633 -1.5577092)
 Global angular momentum = (-0.91417673 1.1630397 -2879.7229)
 Simulation completed = 1.9081676%

Time Step =232
 deltaT = 0.00041302329 s
 Time = 0.095821402 s
 Global linear momentum = (462.44663 -11.326332 -1.5935931)
 Global angular momentum = (-0.93681159 1.136085 -2892.9917)
 Simulation completed = 1.916428%

Time Step =233
 deltaT = 0.00041302329 s
 Time = 0.096234426 s
 Global linear momentum = (465.08084 -11.568889 -1.6310912)
 Global angular momentum = (-0.96008004 1.1083501 -2906.2878)
 Simulation completed = 1.9246885%

Time Step =234
 deltaT = 0.00041302329 s
 Time = 0.096647449 s
 Global linear momentum = (467.76014 -11.813313 -1.6702372)
 Global angular momentum = (-0.9839445 1.0798463 -2919.6114)
 Simulation completed = 1.932949%

Time Step =235
 deltaT = 0.00041302329 s
 Time = 0.097060472 s
 Global linear momentum = (470.48511 -12.059618 -1.7110661)
 Global angular momentum = (-1.0083678 1.0505849 -2932.9627)
 Simulation completed = 1.9412094%

Time Step =236
 deltaT = 0.00041302329 s
 Time = 0.097473496 s
 Global linear momentum = (473.25629 -12.307824 -1.7536135)
 Global angular momentum = (-1.0333137 1.0205773 -2946.3418)
 Simulation completed = 1.9494699%

Time Step =237
 deltaT = 0.00041302329 s
 Time = 0.097886519 s
 Global linear momentum = (476.0742 -12.557956 -1.7979154)
 Global angular momentum = (-1.0587474 0.9898349 -2959.7489)
 Simulation completed = 1.9577304%

Time Step =238
 deltaT = 0.00041302329 s
 Time = 0.098299542 s
 Global linear momentum = (478.9393 -12.810043 -1.8440083)
 Global angular momentum = (-1.0846362 0.9583692 -2973.184)
 Simulation completed = 1.9659908%

Time Step =239
 deltaT = 0.00041302329 s
 Time = 0.098712566 s
 Global linear momentum = (481.85201 -13.064118 -1.8919284)
 Global angular momentum = (-1.1109496 0.92619132 -2986.6472)
 Simulation completed = 1.9742513%

Time Step =240
 deltaT = 0.00041302329 s
 Time = 0.099125589 s
 Global linear momentum = (484.81271 -13.320218 -1.9417117)
 Global angular momentum = (-1.13766 0.89331217 -3000.1387)
 Simulation completed = 1.9825118%

Time Step =241
 deltaT = 0.00041302329 s
 Time = 0.099538612 s
 Global linear momentum = (487.82174 -13.578384 -1.9933932)
 Global angular momentum = (-1.1647427 0.85974225 -3013.6585)
 Simulation completed = 1.9907722%

Time Step =242
 deltaT = 0.00041302329 s
 Time = 0.099951635 s
 Global linear momentum = (490.8794 -13.83866 -2.0470068)
 Global angular momentum = (-1.1921763 0.82549161 -3027.2067)
 Simulation completed = 1.9990327%

Time Step =243
 deltaT = 0.00041302329 s
 Time = 0.10036466 s
 Global linear momentum = (493.98595 -14.10109 -2.1025846)
 Global angular momentum = (-1.2199429 0.79056978 -3040.7833)
 Simulation completed = 2.0072932%

Time Step =244
 deltaT = 0.00041302329 s
 Time = 0.10077768 s
 Global linear momentum = (497.14159 -14.36572 -2.1601565)
 Global angular momentum = (-1.2480278 0.75498568 -3054.3884)
 Simulation completed = 2.0155536%

Time Step =245
 deltaT = 0.00041302329 s
 Time = 0.10119071 s
 Global linear momentum = (500.34648 -14.632599 -2.2197496)
 Global angular momentum = (-1.2764201 0.71874762 -3068.022)
 Simulation completed = 2.0238141%

Time Step =246
 deltaT = 0.00041302329 s
 Time = 0.10160373 s
 Global linear momentum = (503.60075 -14.901772 -2.281388)
 Global angular momentum = (-1.3051119 0.68186321 -3081.6842)
 Simulation completed = 2.0320746%

Time Step =247
 deltaT = 0.00041302329 s
 Time = 0.10201675 s
 Global linear momentum = (506.90446 -15.173287 -2.3450919)
 Global angular momentum = (-1.334099 0.64433936 -3095.3749)
 Simulation completed = 2.040335%

Time Step =248
 deltaT = 0.00041302329 s
 Time = 0.10242978 s
 Global linear momentum = (510.25764 -15.447189 -2.4108775)
 Global angular momentum = (-1.3633798 0.60618228 -3109.0941)
 Simulation completed = 2.0485955%

Time Step =249
 deltaT = 0.00041302329 s
 Time = 0.1028428 s
 Global linear momentum = (513.66028 -15.72352 -2.4787562)
 Global angular momentum = (-1.3929558 0.56739742 -3122.8419)
 Simulation completed = 2.056856%

Time Step =250
 deltaT = 0.00041302329 s
 Time = 0.10325582 s
 Global linear momentum = (517.1123 -16.002322 -2.5487342)
 Global angular momentum = (-1.4228309 0.52798954 -3136.6181)
 Simulation completed = 2.0651164%

Time Step =251
 deltaT = 0.00041302329 s
 Time = 0.10366884 s
 Global linear momentum = (520.61359 -16.283632 -2.6208122)
 Global angular momentum = (-1.453011 0.48796269 -3150.4228)
 Simulation completed = 2.0733769%

Time Step =252
 deltaT = 0.00041302329 s
 Time = 0.10408187 s
 Global linear momentum = (524.16398 -16.567484 -2.6949851)
 Global angular momentum = (-1.4835039 0.44732026 -3164.2558)
 Simulation completed = 2.0816374%

Time Step =253
 deltaT = 0.00041302329 s
 Time = 0.10449489 s
 Global linear momentum = (527.76326 -16.853908 -2.7712411)
 Global angular momentum = (-1.5143186 0.40606499 -3178.1172)
 Simulation completed = 2.0898978%

Time Step =254
 deltaT = 0.00041302329 s
 Time = 0.10490791 s
 Global linear momentum = (531.41119 -17.142928 -2.8495623)
 Global angular momentum = (-1.5454651 0.36419904 -3192.0068)
 Simulation completed = 2.0981583%

Time Step =255
 deltaT = 0.00041302329 s
 Time = 0.10532094 s
 Global linear momentum = (535.10746 -17.434566 -2.9299235)
 Global angular momentum = (-1.5769538 0.32172405 -3205.9246)
 Simulation completed = 2.1064188%

Time Step =256
 deltaT = 0.00041302329 s
 Time = 0.10573396 s
 Global linear momentum = (538.85171 -17.728837 -3.0122926)
 Global angular momentum = (-1.6087947 0.27864119 -3219.8703)
 Simulation completed = 2.1146792%

Time Step =257
 deltaT = 0.00041302329 s
 Time = 0.10614698 s
 Global linear momentum = (542.64355 -18.025751 -3.0966304)
 Global angular momentum = (-1.6409979 0.23495122 -3233.8439)
 Simulation completed = 2.1229397%

Time Step =258
 deltaT = 0.00041302329 s
 Time = 0.10656001 s
 Global linear momentum = (546.48255 -18.325313 -3.1828901)
 Global angular momentum = (-1.673572 0.1906546 -3247.8452)
 Simulation completed = 2.1312002%

Time Step =259
 deltaT = 0.00041302329 s
 Time = 0.10697303 s
 Global linear momentum = (550.36821 -18.627522 -3.2710177)
 Global angular momentum = (-1.7065246 0.14575154 -3261.8741)
 Simulation completed = 2.1394606%

Time Step =260
 deltaT = 0.00041302329 s
 Time = 0.10738605 s
 Global linear momentum = (554.30001 -18.932372 -3.360952)
 Global angular momentum = (-1.7398612 0.10024209 -3275.9303)
 Simulation completed = 2.1477211%

Time Step =261
 deltaT = 0.00041302329 s
 Time = 0.10779908 s
 Global linear momentum = (558.27739 -19.23985 -3.4526243)
 Global angular momentum = (-1.7735854 0.054126248 -3290.0136)
 Simulation completed = 2.1559816%

Time Step =262
 deltaT = 0.00041302329 s
 Time = 0.1082121 s
 Global linear momentum = (562.29973 -19.549939 -3.5459589)
 Global angular momentum = (-1.8076981 0.0074040048 -3304.1239)
 Simulation completed = 2.164242%

Time Step =263
 deltaT = 0.00041302329 s
 Time = 0.10862512 s
 Global linear momentum = (566.36637 -19.862617 -3.6408733)
 Global angular momentum = (-1.8421974 -0.039924524 -3318.2608)
 Simulation completed = 2.1725025%

Time Step =264
 deltaT = 0.00041302329 s
 Time = 0.10903815 s
 Global linear momentum = (570.47664 -20.177855 -3.7372782)
 Global angular momentum = (-1.8770784 -0.087859032 -3332.4242)
 Simulation completed = 2.180763%

Time Step =265
 deltaT = 0.00041302329 s
 Time = 0.10945117 s
 Global linear momentum = (574.62981 -20.49562 -3.8350779)
 Global angular momentum = (-1.9123328 -0.13639893 -3346.6137)
 Simulation completed = 2.1890234%

Time Step =266
 deltaT = 0.00041302329 s
 Time = 0.10986419 s
 Global linear momentum = (578.82511 -20.815874 -3.9341709)
 Global angular momentum = (-1.9479489 -0.18554326 -3360.829)
 Simulation completed = 2.1972839%

Time Step =267
 deltaT = 0.00041302329 s
 Time = 0.11027722 s
 Global linear momentum = (583.06175 -21.138575 -4.0344497)
 Global angular momentum = (-1.9839114 -0.23529062 -3375.0699)
 Simulation completed = 2.2055444%

Time Step =268
 deltaT = 0.00041302329 s
 Time = 0.11069024 s
 Global linear momentum = (587.33891 -21.463677 -4.1358019)
 Global angular momentum = (-2.0202012 -0.28563907 -3389.336)
 Simulation completed = 2.2138048%

Time Step =269
 deltaT = 0.00041302329 s
 Time = 0.11110326 s
 Global linear momentum = (591.65573 -21.791128 -4.23811)
 Global angular momentum = (-2.0567957 -0.33658609 -3403.6269)
 Simulation completed = 2.2220653%

Time Step =270
 deltaT = 0.00041302329 s
 Time = 0.11151629 s
 Global linear momentum = (596.01132 -22.120875 -4.3412526)
 Global angular momentum = (-2.0936685 -0.38812848 -3417.9422)
 Simulation completed = 2.2303257%

Time Step =271
 deltaT = 0.00041302329 s
 Time = 0.11192931 s
 Global linear momentum = (600.40478 -22.452859 -4.4451042)
 Global angular momentum = (-2.1307897 -0.44026231 -3432.2817)
 Simulation completed = 2.2385862%

Time Step =272
 deltaT = 0.00041302329 s
 Time = 0.11234233 s
 Global linear momentum = (604.83517 -22.787022 -4.5495361)
 Global angular momentum = (-2.1681259 -0.49298285 -3446.6448)
 Simulation completed = 2.2468467%

Time Step =273
 deltaT = 0.00041302329 s
 Time = 0.11275536 s
 Global linear momentum = (609.30154 -23.123301 -4.6544169)
 Global angular momentum = (-2.2056404 -0.54628455 -3461.0311)
 Simulation completed = 2.2551071%

Time Step =274
 deltaT = 0.00041302329 s
 Time = 0.11316838 s
 Global linear momentum = (613.80292 -23.461629 -4.759613)
 Global angular momentum = (-2.2432931 -0.60016098 -3475.4403)
 Simulation completed = 2.2633676%

Time Step =275
 deltaT = 0.00041302329 s
 Time = 0.1135814 s
 Global linear momentum = (618.33831 -23.801942 -4.8649892)
 Global angular momentum = (-2.2810415 -0.65460478 -3489.8718)
 Simulation completed = 2.2716281%

Time Step =276
 deltaT = 0.00041302329 s
 Time = 0.11399443 s
 Global linear momentum = (622.90671 -24.144171 -4.9704091)
 Global angular momentum = (-2.3188399 -0.70960765 -3504.3252)
 Simulation completed = 2.2798885%

Time Step =277
 deltaT = 0.00041302329 s
 Time = 0.11440745 s
 Global linear momentum = (627.50709 -24.488247 -5.0757359)
 Global angular momentum = (-2.3566407 -0.76516032 -3518.8)
 Simulation completed = 2.288149%

Time Step =278
 deltaT = 0.00041302329 s
 Time = 0.11482047 s
 Global linear momentum = (632.13842 -24.834101 -5.1808325)
 Global angular momentum = (-2.3943938 -0.82125251 -3533.2957)
 Simulation completed = 2.2964095%

Time Step =279
 deltaT = 0.00041302329 s
 Time = 0.1152335 s
 Global linear momentum = (636.79967 -25.181663 -5.2855626)
 Global angular momentum = (-2.4320475 -0.87787299 -3547.8118)
 Simulation completed = 2.3046699%

Time Step =280
 deltaT = 0.00041302329 s
 Time = 0.11564652 s
 Global linear momentum = (641.4898 -25.530864 -5.3897907)
 Global angular momentum = (-2.4695488 -0.93500949 -3562.3478)
 Simulation completed = 2.3129304%

Time Step =281
 deltaT = 0.00041302329 s
 Time = 0.11605954 s
 Global linear momentum = (646.20774 -25.881633 -5.4933828)
 Global angular momentum = (-2.5068433 -0.99264877 -3576.9031)
 Simulation completed = 2.3211909%

Time Step =282
 deltaT = 0.00041302329 s
 Time = 0.11647257 s
 Global linear momentum = (650.95245 -26.233904 -5.5962069)
 Global angular momentum = (-2.543876 -1.0507766 -3591.4772)
 Simulation completed = 2.3294513%

Time Step =283
 deltaT = 0.00041302329 s
 Time = 0.11688559 s
 Global linear momentum = (655.72287 -26.58761 -5.6981333)
 Global angular momentum = (-2.5805913 -1.1093778 -3606.0696)
 Simulation completed = 2.3377118%

Time Step =284
 deltaT = 0.00041302329 s
 Time = 0.11729861 s
 Global linear momentum = (660.51796 -26.942685 -5.799035)
 Global angular momentum = (-2.6169336 -1.1684361 -3620.6796)
 Simulation completed = 2.3459723%

Time Step =285
 deltaT = 0.00041302329 s
 Time = 0.11771164 s
 Global linear momentum = (665.33666 -27.299065 -5.8987883)
 Global angular momentum = (-2.6528472 -1.2279347 -3635.3068)
 Simulation completed = 2.3542327%

Time Step =286
 deltaT = 0.00041302329 s
 Time = 0.11812466 s
 Global linear momentum = (670.17794 -27.65669 -5.9972728)
 Global angular momentum = (-2.688277 -1.2878554 -3649.9505)
 Simulation completed = 2.3624932%

Time Step =287
 deltaT = 0.00041302329 s
 Time = 0.11853768 s
 Global linear momentum = (675.04075 -28.0155 -6.0943723)
 Global angular momentum = (-2.7231687 -1.3481795 -3664.6102)
 Simulation completed = 2.3707537%

Time Step =288
 deltaT = 0.00041302329 s
 Time = 0.11895071 s
 Global linear momentum = (679.92408 -28.375441 -6.1899742)
 Global angular momentum = (-2.7574689 -1.4088875 -3679.2853)
 Simulation completed = 2.3790141%

Time Step =289
 deltaT = 0.00041302329 s
 Time = 0.11936373 s
 Global linear momentum = (684.82691 -28.736459 -6.2839707)
 Global angular momentum = (-2.7911255 -1.4699589 -3693.9751)
 Simulation completed = 2.3872746%

Time Step =290
 deltaT = 0.00041302329 s
 Time = 0.11977675 s
 Global linear momentum = (689.74823 -29.098505 -6.3762584)
 Global angular momentum = (-2.8240876 -1.5313726 -3708.6793)
 Simulation completed = 2.3955351%

Time Step =291
 deltaT = 0.00041302329 s
 Time = 0.12018978 s
 Global linear momentum = (694.68706 -29.461533 -6.4667387)
 Global angular momentum = (-2.8563063 -1.593107 -3723.397)
 Simulation completed = 2.4037955%

Time Step =292
 deltaT = 0.00041302329 s
 Time = 0.1206028 s
 Global linear momentum = (699.64242 -29.825502 -6.5553181)
 Global angular momentum = (-2.8877341 -1.6551396 -3738.1278)
 Simulation completed = 2.412056%

Time Step =293
 deltaT = 0.00041302329 s
 Time = 0.12101582 s
 Global linear momentum = (704.61335 -30.190373 -6.6419081)
 Global angular momentum = (-2.9183259 -1.7174476 -3752.871)
 Simulation completed = 2.4203165%

Time Step =294
 deltaT = 0.00041302329 s
 Time = 0.12142885 s
 Global linear momentum = (709.5989 -30.556113 -6.7264256)
 Global angular momentum = (-2.9480383 -1.7800074 -3767.6262)
 Simulation completed = 2.4285769%

Time Step =295
 deltaT = 0.00041302329 s
 Time = 0.12184187 s
 Global linear momentum = (714.59817 -30.922693 -6.8087927)
 Global angular momentum = (-2.9768302 -1.8427952 -3782.3926)
 Simulation completed = 2.4368374%

Time Step =296
 deltaT = 0.00041302329 s
 Time = 0.12225489 s
 Global linear momentum = (719.61023 -31.290088 -6.8889369)
 Global angular momentum = (-3.0046629 -1.9057868 -3797.1698)
 Simulation completed = 2.4450979%

Time Step =297
 deltaT = 0.00041302329 s
 Time = 0.12266792 s
 Global linear momentum = (724.63421 -31.658276 -6.9667913)
 Global angular momentum = (-3.0314996 -1.9689575 -3811.9571)
 Simulation completed = 2.4533583%

Time Step =298
 deltaT = 0.00041302329 s
 Time = 0.12308094 s
 Global linear momentum = (729.66923 -32.027243 -7.0422944)
 Global angular momentum = (-3.0573062 -2.0322825 -3826.7541)
 Simulation completed = 2.4616188%

Time Step =299
 deltaT = 0.00041302329 s
 Time = 0.12349396 s
 Global linear momentum = (734.71447 -32.396977 -7.1153901)
 Global angular momentum = (-3.0820508 -2.0957366 -3841.56)
 Simulation completed = 2.4698793%

Time Step =300
 deltaT = 0.00041302329 s
 Time = 0.12390699 s
 Global linear momentum = (739.76908 -32.76747 -7.1860281)
 Global angular momentum = (-3.1057037 -2.1592946 -3856.3745)
 Simulation completed = 2.4781397%

Time Step =301
 deltaT = 0.00041302329 s
 Time = 0.12432001 s
 Global linear momentum = (744.83229 -33.138721 -7.2541632)
 Global angular momentum = (-3.1282378 -2.222931 -3871.1969)
 Simulation completed = 2.4864002%

Time Step =302
 deltaT = 0.00041302329 s
 Time = 0.12473303 s
 Global linear momentum = (749.90329 -33.51073 -7.3197559)
 Global angular momentum = (-3.149628 -2.2866206 -3886.0267)
 Simulation completed = 2.4946607%

Time Step =303
 deltaT = 0.00041302329 s
 Time = 0.12514606 s
 Global linear momentum = (754.98135 -33.883505 -7.3827717)
 Global angular momentum = (-3.1698514 -2.3503378 -3900.8634)
 Simulation completed = 2.5029211%

Time Step =304
 deltaT = 0.00041302329 s
 Time = 0.12555908 s
 Global linear momentum = (760.06572 -34.257054 -7.4431818)
 Global angular momentum = (-3.1888875 -2.4140572 -3915.7064)
 Simulation completed = 2.5111816%

Time Step =305
 deltaT = 0.00041302329 s
 Time = 0.1259721 s
 Global linear momentum = (765.1557 -34.631392 -7.5009623)
 Global angular momentum = (-3.2067178 -2.4777535 -3930.5553)
 Simulation completed = 2.519442%

Time Step =306
 deltaT = 0.00041302329 s
 Time = 0.12638513 s
 Global linear momentum = (770.25059 -35.006536 -7.5560946)
 Global angular momentum = (-3.2233255 -2.5414017 -3945.4095)
 Simulation completed = 2.5277025%

Time Step =307
 deltaT = 0.00041302329 s
 Time = 0.12679815 s
 Global linear momentum = (775.34974 -35.382506 -7.6085649)
 Global angular momentum = (-3.2386963 -2.6049766 -3960.2686)
 Simulation completed = 2.535963%

Time Step =308
 deltaT = 0.00041302329 s
 Time = 0.12721117 s
 Global linear momentum = (780.45249 -35.759325 -7.6583646)
 Global angular momentum = (-3.2528173 -2.6684537 -3975.132)
 Simulation completed = 2.5442234%

Time Step =309
 deltaT = 0.00041302329 s
 Time = 0.1276242 s
 Global linear momentum = (785.55823 -36.137019 -7.7054897)
 Global angular momentum = (-3.2656775 -2.7318084 -3989.9993)
 Simulation completed = 2.5524839%

Time Step =310
 deltaT = 0.00041302329 s
 Time = 0.12803722 s
 Global linear momentum = (790.66635 -36.515617 -7.7499407)
 Global angular momentum = (-3.2772676 -2.7950165 -4004.8701)
 Simulation completed = 2.5607444%

Time Step =311
 deltaT = 0.00041302329 s
 Time = 0.12845024 s
 Global linear momentum = (795.77627 -36.895147 -7.791723)
 Global angular momentum = (-3.28758 -2.8580543 -4019.7438)
 Simulation completed = 2.5690048%

Time Step =312
 deltaT = 0.00041302329 s
 Time = 0.12886327 s
 Global linear momentum = (800.88744 -37.275641 -7.830846)
 Global angular momentum = (-3.2966083 -2.9208983 -4034.6201)
 Simulation completed = 2.5772653%

Time Step =313
 deltaT = 0.00041302329 s
 Time = 0.12927629 s
 Global linear momentum = (805.99932 -37.657132 -7.8673237)
 Global angular momentum = (-3.3043479 -2.9835253 -4049.4984)
 Simulation completed = 2.5855258%

Time Step =314
 deltaT = 0.00041302329 s
 Time = 0.12968931 s
 Global linear momentum = (811.11138 -38.039651 -7.9011738)
 Global angular momentum = (-3.3107954 -3.0459129 -4064.3784)
 Simulation completed = 2.5937862%

Time Step =315
 deltaT = 0.00041302329 s
 Time = 0.13010234 s
 Global linear momentum = (816.22312 -38.423232 -7.9324184)
 Global angular momentum = (-3.3159487 -3.1080388 -4079.2597)
 Simulation completed = 2.6020467%

Time Step =316
 deltaT = 0.00041302329 s
 Time = 0.13051536 s
 Global linear momentum = (821.33407 -38.807908 -7.9610829)
 Global angular momentum = (-3.3198067 -3.1698813 -4094.1418)
 Simulation completed = 2.6103072%

Time Step =317
 deltaT = 0.00041302329 s
 Time = 0.13092838 s
 Global linear momentum = (826.44376 -39.19371 -7.9871966)
 Global angular momentum = (-3.3223698 -3.2314192 -4109.0243)
 Simulation completed = 2.6185676%

Time Step =318
 deltaT = 0.00041302329 s
 Time = 0.13134141 s
 Global linear momentum = (831.55175 -39.580669 -8.0107922)
 Global angular momentum = (-3.3236394 -3.2926317 -4123.9068)
 Simulation completed = 2.6268281%

Time Step =319
 deltaT = 0.00041302329 s
 Time = 0.13175443 s
 Global linear momentum = (836.6576 -39.968814 -8.0319056)
 Global angular momentum = (-3.3236177 -3.3534986 -4138.789)
 Simulation completed = 2.6350886%

Time Step =320
 deltaT = 0.00041302329 s
 Time = 0.13216745 s
 Global linear momentum = (841.76089 -40.358173 -8.0505757)
 Global angular momentum = (-3.3223081 -3.4140002 -4153.6704)
 Simulation completed = 2.643349%

Time Step =321
 deltaT = 0.00041302329 s
 Time = 0.13258048 s
 Global linear momentum = (846.86124 -40.748771 -8.0668446)
 Global angular momentum = (-3.319715 -3.4741174 -4168.5507)
 Simulation completed = 2.6516095%

Time Step =322
 deltaT = 0.00041302329 s
 Time = 0.1329935 s
 Global linear momentum = (851.95826 -41.14063 -8.0807568)
 Global angular momentum = (-3.3158436 -3.5338315 -4183.4295)
 Simulation completed = 2.65987%

Time Step =323
 deltaT = 0.00041302329 s
 Time = 0.13340652 s
 Global linear momentum = (857.05158 -41.53377 -8.0923594)
 Global angular momentum = (-3.3106998 -3.5931244 -4198.3065)
 Simulation completed = 2.6681304%

Time Step =324
 deltaT = 0.00041302329 s
 Time = 0.13381954 s
 Global linear momentum = (862.14084 -41.928208 -8.1017021)
 Global angular momentum = (-3.3042906 -3.6519786 -4213.1812)
 Simulation completed = 2.6763909%

Time Step =325
 deltaT = 0.00041302329 s
 Time = 0.13423257 s
 Global linear momentum = (867.22571 -42.323957 -8.1088363)
 Global angular momentum = (-3.2966236 -3.710377 -4228.0534)
 Simulation completed = 2.6846514%

Time Step =326
 deltaT = 0.00041302329 s
 Time = 0.13464559 s
 Global linear momentum = (872.30585 -42.721026 -8.1138157)
 Global angular momentum = (-3.2877072 -3.768303 -4242.9226)
 Simulation completed = 2.6929118%

Time Step =327
 deltaT = 0.00041302329 s
 Time = 0.13505861 s
 Global linear momentum = (877.38095 -43.119422 -8.1166955)
 Global angular momentum = (-3.2775505 -3.8257408 -4257.7886)
 Simulation completed = 2.7011723%

Time Step =328
 deltaT = 0.00041302329 s
 Time = 0.13547164 s
 Global linear momentum = (882.4507 -43.519146 -8.1175327)
 Global angular momentum = (-3.2661633 -3.8826748 -4272.651)
 Simulation completed = 2.7094328%

Time Step =329
 deltaT = 0.00041302329 s
 Time = 0.13588466 s
 Global linear momentum = (887.5148 -43.920197 -8.1163854)
 Global angular momentum = (-3.2535561 -3.93909 -4287.5095)
 Simulation completed = 2.7176932%

Time Step =330
 deltaT = 0.00041302329 s
 Time = 0.13629768 s
 Global linear momentum = (892.57298 -44.322569 -8.113313)
 Global angular momentum = (-3.2397398 -3.9949721 -4302.3637)
 Simulation completed = 2.7259537%

Time Step =331
 deltaT = 0.00041302329 s
 Time = 0.13671071 s
 Global linear momentum = (897.62496 -44.726251 -8.1083756)
 Global angular momentum = (-3.2247263 -4.050307 -4317.2133)
 Simulation completed = 2.7342142%

Time Step =332
 deltaT = 0.00041302329 s
 Time = 0.13712373 s
 Global linear momentum = (902.67048 -45.13123 -8.1016344)
 Global angular momentum = (-3.2085275 -4.1050812 -4332.058)
 Simulation completed = 2.7424746%

Time Step =333
 deltaT = 0.00041302329 s
 Time = 0.13753675 s
 Global linear momentum = (907.70929 -45.537487 -8.0931509)
 Global angular momentum = (-3.1911563 -4.1592817 -4346.8975)
 Simulation completed = 2.7507351%

Time Step =334
 deltaT = 0.00041302329 s
 Time = 0.13794978 s
 Global linear momentum = (912.74114 -45.945001 -8.0829869)
 Global angular momentum = (-3.1726258 -4.2128958 -4361.7314)
 Simulation completed = 2.7589956%

Time Step =335
 deltaT = 0.00041302329 s
 Time = 0.1383628 s
 Global linear momentum = (917.76579 -46.353746 -8.0712044)
 Global angular momentum = (-3.1529496 -4.2659115 -4376.5595)
 Simulation completed = 2.767256%

Time Step =336
 deltaT = 0.00041302329 s
 Time = 0.13877582 s
 Global linear momentum = (922.78303 -46.763691 -8.0578656)
 Global angular momentum = (-3.1321416 -4.3183169 -4391.3813)
 Simulation completed = 2.7755165%

Time Step =337
 deltaT = 0.00041302329 s
 Time = 0.13918885 s
 Global linear momentum = (927.79263 -47.174804 -8.0430322)
 Global angular momentum = (-3.1102163 -4.3701008 -4406.1968)
 Simulation completed = 2.783777%

Time Step =338
 deltaT = 0.00041302329 s
 Time = 0.13960187 s
 Global linear momentum = (932.79438 -47.587048 -8.0267655)
 Global angular momentum = (-3.087188 -4.4212521 -4421.0054)
 Simulation completed = 2.7920374%

Time Step =339
 deltaT = 0.00041302329 s
 Time = 0.14001489 s
 Global linear momentum = (937.78809 -48.000383 -8.0091265)
 Global angular momentum = (-3.0630718 -4.4717604 -4435.8069)
 Simulation completed = 2.8002979%

Time Step =340
 deltaT = 0.00041302329 s
 Time = 0.14042792 s
 Global linear momentum = (942.77356 -48.414766 -7.9901751)
 Global angular momentum = (-3.0378826 -4.5216155 -4450.6011)
 Simulation completed = 2.8085583%

Time Step =341
 deltaT = 0.00041302329 s
 Time = 0.14084094 s
 Global linear momentum = (947.7506 -48.830149 -7.9699706)
 Global angular momentum = (-3.0116356 -4.5708075 -4465.3876)
 Simulation completed = 2.8168188%

Time Step =342
 deltaT = 0.00041302329 s
 Time = 0.14125396 s
 Global linear momentum = (952.71904 -49.246485 -7.9485712)
 Global angular momentum = (-2.9843459 -4.619327 -4480.1662)
 Simulation completed = 2.8250793%

Time Step =343
 deltaT = 0.00041302329 s
 Time = 0.14166699 s
 Global linear momentum = (957.6787 -49.663721 -7.9260339)
 Global angular momentum = (-2.956029 -4.6671648 -4494.9365)
 Simulation completed = 2.8333397%

Time Step =344
 deltaT = 0.00041302329 s
 Time = 0.14208001 s
 Global linear momentum = (962.62943 -50.081803 -7.9024144)
 Global angular momentum = (-2.9266998 -4.7143121 -4509.6983)
 Simulation completed = 2.8416002%

Time Step =345
 deltaT = 0.00041302329 s
 Time = 0.14249303 s
 Global linear momentum = (967.57106 -50.500675 -7.8777672)
 Global angular momentum = (-2.8963737 -4.7607604 -4524.4513)
 Simulation completed = 2.8498607%

Time Step =346
 deltaT = 0.00041302329 s
 Time = 0.14290606 s
 Global linear momentum = (972.50344 -50.920277 -7.8521449)
 Global angular momentum = (-2.8650655 -4.8065016 -4539.1953)
 Simulation completed = 2.8581211%

Time Step =347
 deltaT = 0.00041302329 s
 Time = 0.14331908 s
 Global linear momentum = (977.42644 -51.34055 -7.8255988)
 Global angular momentum = (-2.8327901 -4.8515278 -4553.9299)
 Simulation completed = 2.8663816%

Time Step =348
 deltaT = 0.00041302329 s
 Time = 0.1437321 s
 Global linear momentum = (982.33992 -51.761429 -7.7981785)
 Global angular momentum = (-2.799562 -4.8958313 -4568.6549)
 Simulation completed = 2.8746421%

Time Step =349
 deltaT = 0.00041302329 s
 Time = 0.14414513 s
 Global linear momentum = (987.24374 -52.182851 -7.7699318)
 Global angular momentum = (-2.7653953 -4.939405 -4583.37)
 Simulation completed = 2.8829025%

Time Step =350
 deltaT = 0.00041302329 s
 Time = 0.14455815 s
 Global linear momentum = (992.13778 -52.604749 -7.7409045)
[...]

Time Step =12016
 deltaT = 0.00041302329 s
 Time = 4.9628878 s
 Global linear momentum = (-2189.5393 565.72097 -32.338067)
 Global angular momentum = (-82.488576 -204.13815 9712.3169)
 Simulation completed = 99.257756%

Time Step =12017
 deltaT = 0.00041302329 s
 Time = 4.9633008 s
 Global linear momentum = (-2190.046 565.1251 -32.448936)
 Global angular momentum = (-83.314459 -203.93039 9713.3651)
 Simulation completed = 99.266017%

Time Step =12018
 deltaT = 0.00041302329 s
 Time = 4.9637139 s
 Global linear momentum = (-2190.545 564.52653 -32.557834)
 Global angular momentum = (-84.137887 -203.72239 9714.3892)
 Simulation completed = 99.274277%

Time Step =12019
 deltaT = 0.00041302329 s
 Time = 4.9641269 s
 Global linear momentum = (-2191.0363 563.92525 -32.664771)
 Global angular momentum = (-84.958868 -203.51414 9715.3891)
 Simulation completed = 99.282538%

Time Step =12020
 deltaT = 0.00041302329 s
 Time = 4.9645399 s
 Global linear momentum = (-2191.5198 563.32126 -32.769755)
 Global angular momentum = (-85.777413 -203.30563 9716.3649)
 Simulation completed = 99.290798%

Time Step =12021
 deltaT = 0.00041302329 s
 Time = 4.9649529 s
 Global linear momentum = (-2191.9956 562.71453 -32.872795)
 Global angular momentum = (-86.593532 -203.09688 9717.3166)
 Simulation completed = 99.299059%

Time Step =12022
 deltaT = 0.00041302329 s
 Time = 4.965366 s
 Global linear momentum = (-2192.4636 562.10505 -32.973901)
 Global angular momentum = (-87.407234 -202.88788 9718.2441)
 Simulation completed = 99.307319%

Time Step =12023
 deltaT = 0.00041302329 s
 Time = 4.965779 s
 Global linear momentum = (-2192.9238 561.4928 -33.073081)
 Global angular momentum = (-88.21853 -202.67864 9719.1474)
 Simulation completed = 99.31558%

Time Step =12024
 deltaT = 0.00041302329 s
 Time = 4.966192 s
 Global linear momentum = (-2193.3763 560.87778 -33.170346)
 Global angular momentum = (-89.02743 -202.46914 9720.0266)
 Simulation completed = 99.32384%

Time Step =12025
 deltaT = 0.00041302329 s
 Time = 4.966605 s
 Global linear momentum = (-2193.8209 560.25997 -33.265703)
 Global angular momentum = (-89.833944 -202.2594 9720.8816)
 Simulation completed = 99.3321%

Time Step =12026
 deltaT = 0.00041302329 s
 Time = 4.967018 s
 Global linear momentum = (-2194.2578 559.63935 -33.359164)
 Global angular momentum = (-90.638084 -202.04941 9721.7124)
 Simulation completed = 99.340361%

Time Step =12027
 deltaT = 0.00041302329 s
 Time = 4.9674311 s
 Global linear momentum = (-2194.6869 559.01593 -33.450738)
 Global angular momentum = (-91.439859 -201.83918 9722.519)
 Simulation completed = 99.348621%

Time Step =12028
 deltaT = 0.00041302329 s
 Time = 4.9678441 s
 Global linear momentum = (-2195.1082 558.38967 -33.540433)
 Global angular momentum = (-92.23928 -201.62869 9723.3013)
 Simulation completed = 99.356882%

Time Step =12029
 deltaT = 0.00041302329 s
 Time = 4.9682571 s
 Global linear momentum = (-2195.5216 557.76058 -33.628261)
 Global angular momentum = (-93.036359 -201.41797 9724.0595)
 Simulation completed = 99.365142%

Time Step =12030
 deltaT = 0.00041302329 s
 Time = 4.9686701 s
 Global linear momentum = (-2195.9273 557.12864 -33.714231)
 Global angular momentum = (-93.831106 -201.20699 9724.7934)
 Simulation completed = 99.373403%

Time Step =12031
 deltaT = 0.00041302329 s
 Time = 4.9690832 s
 Global linear momentum = (-2196.3251 556.49384 -33.798353)
 Global angular momentum = (-94.623533 -200.99577 9725.5031)
 Simulation completed = 99.381663%

Time Step =12032
 deltaT = 0.00041302329 s
 Time = 4.9694962 s
 Global linear momentum = (-2196.715 555.85618 -33.880637)
 Global angular momentum = (-95.413651 -200.78431 9726.1886)
 Simulation completed = 99.389924%

Time Step =12033
 deltaT = 0.00041302329 s
 Time = 4.9699092 s
 Global linear momentum = (-2197.0972 555.21564 -33.961093)
 Global angular momentum = (-96.201472 -200.5726 9726.8498)
 Simulation completed = 99.398184%

Time Step =12034
 deltaT = 0.00041302329 s
 Time = 4.9703222 s
 Global linear momentum = (-2197.4715 554.57221 -34.039733)
 Global angular momentum = (-96.987006 -200.36064 9727.4867)
 Simulation completed = 99.406445%

Time Step =12035
 deltaT = 0.00041302329 s
 Time = 4.9707353 s
 Global linear momentum = (-2197.8379 553.92589 -34.116565)
 Global angular momentum = (-97.770267 -200.14844 9728.0994)
 Simulation completed = 99.414705%

Time Step =12036
 deltaT = 0.00041302329 s
 Time = 4.9711483 s
 Global linear momentum = (-2198.1965 553.27667 -34.191601)
 Global angular momentum = (-98.551265 -199.936 9728.6878)
 Simulation completed = 99.422966%

Time Step =12037
 deltaT = 0.00041302329 s
 Time = 4.9715613 s
 Global linear momentum = (-2198.5471 552.62454 -34.264851)
 Global angular momentum = (-99.330012 -199.72331 9729.2519)
 Simulation completed = 99.431226%

Time Step =12038
 deltaT = 0.00041302329 s
 Time = 4.9719743 s
 Global linear momentum = (-2198.89 551.9695 -34.336326)
 Global angular momentum = (-100.10652 -199.51038 9729.7917)
 Simulation completed = 99.439486%

Time Step =12039
 deltaT = 0.00041302329 s
 Time = 4.9723873 s
 Global linear momentum = (-2199.2249 551.31154 -34.406037)
 Global angular momentum = (-100.88081 -199.29721 9730.3073)
 Simulation completed = 99.447747%

Time Step =12040
 deltaT = 0.00041302329 s
 Time = 4.9728004 s
 Global linear momentum = (-2199.552 550.65064 -34.473994)
 Global angular momentum = (-101.65287 -199.0838 9730.7985)
 Simulation completed = 99.456007%

Time Step =12041
 deltaT = 0.00041302329 s
 Time = 4.9732134 s
 Global linear momentum = (-2199.8711 549.98682 -34.540208)
 Global angular momentum = (-102.42274 -198.87014 9731.2654)
 Simulation completed = 99.464268%

Time Step =12042
 deltaT = 0.00041302329 s
 Time = 4.9736264 s
 Global linear momentum = (-2200.1824 549.32006 -34.604691)
 Global angular momentum = (-103.19042 -198.65624 9731.7081)
 Simulation completed = 99.472528%

Time Step =12043
 deltaT = 0.00041302329 s
 Time = 4.9740394 s
 Global linear momentum = (-2200.4857 548.65036 -34.667453)
 Global angular momentum = (-103.95593 -198.4421 9732.1264)
 Simulation completed = 99.480789%

Time Step =12044
 deltaT = 0.00041302329 s
 Time = 4.9744525 s
 Global linear momentum = (-2200.7812 547.97771 -34.728507)
 Global angular momentum = (-104.71927 -198.22772 9732.5204)
 Simulation completed = 99.489049%

Time Step =12045
 deltaT = 0.00041302329 s
 Time = 4.9748655 s
 Global linear momentum = (-2201.0687 547.30212 -34.787862)
 Global angular momentum = (-105.48046 -198.0131 9732.89)
 Simulation completed = 99.49731%

Time Step =12046
 deltaT = 0.00041302329 s
 Time = 4.9752785 s
 Global linear momentum = (-2201.3483 546.62357 -34.84553)
 Global angular momentum = (-106.23951 -197.79824 9733.2354)
 Simulation completed = 99.50557%

Time Step =12047
 deltaT = 0.00041302329 s
 Time = 4.9756915 s
 Global linear momentum = (-2201.6199 545.94207 -34.901524)
 Global angular momentum = (-106.99644 -197.58314 9733.5564)
 Simulation completed = 99.513831%

Time Step =12048
 deltaT = 0.00041302329 s
 Time = 4.9761046 s
 Global linear momentum = (-2201.8837 545.25762 -34.955854)
 Global angular momentum = (-107.75126 -197.36781 9733.853)
 Simulation completed = 99.522091%

Time Step =12049
 deltaT = 0.00041302329 s
 Time = 4.9765176 s
 Global linear momentum = (-2202.1395 544.57021 -35.008532)
 Global angular momentum = (-108.50398 -197.15223 9734.1254)
 Simulation completed = 99.530352%

Time Step =12050
 deltaT = 0.00041302329 s
 Time = 4.9769306 s
 Global linear momentum = (-2202.3873 543.87984 -35.059569)
 Global angular momentum = (-109.25462 -196.93641 9734.3733)
 Simulation completed = 99.538612%

Time Step =12051
 deltaT = 0.00041302329 s
 Time = 4.9773436 s
 Global linear momentum = (-2202.6272 543.18652 -35.108979)
 Global angular momentum = (-110.00319 -196.72036 9734.597)
 Simulation completed = 99.546873%

Time Step =12052
 deltaT = 0.00041302329 s
 Time = 4.9777567 s
 Global linear momentum = (-2202.8591 542.49024 -35.156771)
 Global angular momentum = (-110.7497 -196.50407 9734.7963)
 Simulation completed = 99.555133%

Time Step =12053
 deltaT = 0.00041302329 s
 Time = 4.9781697 s
 Global linear momentum = (-2203.0831 541.79101 -35.202959)
 Global angular momentum = (-111.49417 -196.28755 9734.9712)
 Simulation completed = 99.563393%

Time Step =12054
 deltaT = 0.00041302329 s
 Time = 4.9785827 s
 Global linear momentum = (-2203.2991 541.08882 -35.247554)
 Global angular momentum = (-112.23661 -196.07078 9735.1218)
 Simulation completed = 99.571654%

Time Step =12055
 deltaT = 0.00041302329 s
 Time = 4.9789957 s
 Global linear momentum = (-2203.5072 540.38368 -35.290569)
 Global angular momentum = (-112.97703 -195.85379 9735.248)
 Simulation completed = 99.579914%

Time Step =12056
 deltaT = 0.00041302329 s
 Time = 4.9794087 s
 Global linear momentum = (-2203.7073 539.67559 -35.332015)
 Global angular momentum = (-113.71546 -195.63655 9735.3499)
 Simulation completed = 99.588175%

Time Step =12057
 deltaT = 0.00041302329 s
 Time = 4.9798218 s
 Global linear momentum = (-2203.8994 538.96455 -35.371905)
 Global angular momentum = (-114.4519 -195.41909 9735.4274)
 Simulation completed = 99.596435%

Time Step =12058
 deltaT = 0.00041302329 s
 Time = 4.9802348 s
 Global linear momentum = (-2204.0835 538.25057 -35.410252)
 Global angular momentum = (-115.18637 -195.20139 9735.4805)
 Simulation completed = 99.604696%

Time Step =12059
 deltaT = 0.00041302329 s
 Time = 4.9806478 s
 Global linear momentum = (-2204.2596 537.53364 -35.447067)
 Global angular momentum = (-115.91888 -194.98345 9735.5093)
 Simulation completed = 99.612956%

Time Step =12060
 deltaT = 0.00041302329 s
 Time = 4.9810608 s
 Global linear momentum = (-2204.4277 536.81379 -35.482363)
 Global angular momentum = (-116.64945 -194.76528 9735.5137)
 Simulation completed = 99.621217%

Time Step =12061
 deltaT = 0.00041302329 s
 Time = 4.9814739 s
 Global linear momentum = (-2204.5879 536.091 -35.516152)
 Global angular momentum = (-117.37809 -194.54688 9735.4938)
 Simulation completed = 99.629477%

Time Step =12062
 deltaT = 0.00041302329 s
 Time = 4.9818869 s
 Global linear momentum = (-2204.74 535.36529 -35.548448)
 Global angular momentum = (-118.10481 -194.32825 9735.4495)
 Simulation completed = 99.637738%

Time Step =12063
 deltaT = 0.00041302329 s
 Time = 4.9822999 s
 Global linear momentum = (-2204.8841 534.63665 -35.579263)
 Global angular momentum = (-118.82964 -194.10939 9735.3808)
 Simulation completed = 99.645998%

Time Step =12064
 deltaT = 0.00041302329 s
 Time = 4.9827129 s
 Global linear momentum = (-2205.0203 533.90511 -35.60861)
 Global angular momentum = (-119.55259 -193.89029 9735.2878)
 Simulation completed = 99.654259%

Time Step =12065
 deltaT = 0.00041302329 s
 Time = 4.983126 s
 Global linear momentum = (-2205.1484 533.17066 -35.636501)
 Global angular momentum = (-120.27366 -193.67097 9735.1704)
 Simulation completed = 99.662519%

Time Step =12066
 deltaT = 0.00041302329 s
 Time = 4.983539 s
 Global linear momentum = (-2205.2685 532.43331 -35.66295)
 Global angular momentum = (-120.99289 -193.45142 9735.0287)
 Simulation completed = 99.67078%

Time Step =12067
 deltaT = 0.00041302329 s
 Time = 4.983952 s
 Global linear momentum = (-2205.3806 531.69307 -35.687969)
 Global angular momentum = (-121.71027 -193.23163 9734.8626)
 Simulation completed = 99.67904%

Time Step =12068
 deltaT = 0.00041302329 s
 Time = 4.984365 s
 Global linear momentum = (-2205.4847 530.94995 -35.711572)
 Global angular momentum = (-122.42584 -193.01162 9734.6721)
 Simulation completed = 99.6873%

Time Step =12069
 deltaT = 0.00041302329 s
 Time = 4.984778 s
 Global linear momentum = (-2205.5807 530.20396 -35.733771)
 Global angular momentum = (-123.1396 -192.79138 9734.4573)
 Simulation completed = 99.695561%

Time Step =12070
 deltaT = 0.00041302329 s
 Time = 4.9851911 s
 Global linear momentum = (-2205.6687 529.4551 -35.754581)
 Global angular momentum = (-123.85156 -192.57092 9734.2181)
 Simulation completed = 99.703821%

Time Step =12071
 deltaT = 0.00041302329 s
 Time = 4.9856041 s
 Global linear momentum = (-2205.7487 528.7034 -35.774013)
 Global angular momentum = (-124.56175 -192.35023 9733.9546)
 Simulation completed = 99.712082%

Time Step =12072
 deltaT = 0.00041302329 s
 Time = 4.9860171 s
 Global linear momentum = (-2205.8207 527.94884 -35.792081)
 Global angular momentum = (-125.27018 -192.12931 9733.6667)
 Simulation completed = 99.720342%

Time Step =12073
 deltaT = 0.00041302329 s
 Time = 4.9864301 s
 Global linear momentum = (-2205.8846 527.19146 -35.808799)
 Global angular momentum = (-125.97687 -191.90816 9733.3545)
 Simulation completed = 99.728603%

Time Step =12074
 deltaT = 0.00041302329 s
 Time = 4.9868432 s
 Global linear momentum = (-2205.9405 526.43126 -35.824181)
 Global angular momentum = (-126.68182 -191.6868 9733.0179)
 Simulation completed = 99.736863%

Time Step =12075
 deltaT = 0.00041302329 s
 Time = 4.9872562 s
 Global linear momentum = (-2205.9884 525.66824 -35.838239)
 Global angular momentum = (-127.38507 -191.4652 9732.657)
 Simulation completed = 99.745124%

Time Step =12076
 deltaT = 0.00041302329 s
 Time = 4.9876692 s
 Global linear momentum = (-2206.0282 524.90244 -35.850987)
 Global angular momentum = (-128.08662 -191.24339 9732.2717)
 Simulation completed = 99.753384%

Time Step =12077
 deltaT = 0.00041302329 s
 Time = 4.9880822 s
 Global linear momentum = (-2206.06 524.13384 -35.862439)
 Global angular momentum = (-128.78649 -191.02135 9731.8622)
 Simulation completed = 99.761645%

Time Step =12078
 deltaT = 0.00041302329 s
 Time = 4.9884953 s
 Global linear momentum = (-2206.0838 523.36248 -35.872609)
 Global angular momentum = (-129.48469 -190.79909 9731.4283)
 Simulation completed = 99.769905%

Time Step =12079
 deltaT = 0.00041302329 s
 Time = 4.9889083 s
 Global linear momentum = (-2206.0995 522.58837 -35.881509)
 Global angular momentum = (-130.18125 -190.57661 9730.97)
 Simulation completed = 99.778166%

Time Step =12080
 deltaT = 0.00041302329 s
 Time = 4.9893213 s
 Global linear momentum = (-2206.1071 521.81151 -35.889155)
 Global angular momentum = (-130.87618 -190.3539 9730.4875)
 Simulation completed = 99.786426%

Time Step =12081
 deltaT = 0.00041302329 s
 Time = 4.9897343 s
 Global linear momentum = (-2206.1067 521.03193 -35.89556)
 Global angular momentum = (-131.56949 -190.13098 9729.9806)
 Simulation completed = 99.794687%

Time Step =12082
 deltaT = 0.00041302329 s
 Time = 4.9901473 s
 Global linear momentum = (-2206.0983 520.24963 -35.900737)
 Global angular momentum = (-132.26121 -189.90784 9729.4495)
 Simulation completed = 99.802947%

Time Step =12083
 deltaT = 0.00041302329 s
 Time = 4.9905604 s
 Global linear momentum = (-2206.0818 519.46464 -35.904702)
 Global angular momentum = (-132.95134 -189.68448 9728.894)
 Simulation completed = 99.811207%

Time Step =12084
 deltaT = 0.00041302329 s
 Time = 4.9909734 s
 Global linear momentum = (-2206.0573 518.67697 -35.907467)
 Global angular momentum = (-133.63991 -189.4609 9728.3142)
 Simulation completed = 99.819468%

Time Step =12085
 deltaT = 0.00041302329 s
 Time = 4.9913864 s
 Global linear momentum = (-2206.0247 517.88664 -35.909047)
 Global angular momentum = (-134.32693 -189.2371 9727.7102)
 Simulation completed = 99.827728%

Time Step =12086
 deltaT = 0.00041302329 s
 Time = 4.9917994 s
 Global linear momentum = (-2205.9841 517.09366 -35.909455)
 Global angular momentum = (-135.01242 -189.01308 9727.0818)
 Simulation completed = 99.835989%

Time Step =12087
 deltaT = 0.00041302329 s
 Time = 4.9922125 s
 Global linear momentum = (-2205.9354 516.29806 -35.908707)
 Global angular momentum = (-135.6964 -188.78885 9726.4292)
 Simulation completed = 99.844249%

Time Step =12088
 deltaT = 0.00041302329 s
 Time = 4.9926255 s
 Global linear momentum = (-2205.8786 515.49985 -35.906817)
 Global angular momentum = (-136.37888 -188.56441 9725.7523)
 Simulation completed = 99.85251%

Time Step =12089
 deltaT = 0.00041302329 s
 Time = 4.9930385 s
 Global linear momentum = (-2205.8138 514.69904 -35.903798)
 Global angular momentum = (-137.05988 -188.33975 9725.0512)
 Simulation completed = 99.86077%

Time Step =12090
 deltaT = 0.00041302329 s
 Time = 4.9934515 s
 Global linear momentum = (-2205.741 513.89567 -35.899665)
 Global angular momentum = (-137.73941 -188.11488 9724.3258)
 Simulation completed = 99.869031%

Time Step =12091
 deltaT = 0.00041302329 s
 Time = 4.9938646 s
 Global linear momentum = (-2205.6601 513.08974 -35.894432)
 Global angular momentum = (-138.41751 -187.88979 9723.5761)
 Simulation completed = 99.877291%

Time Step =12092
 deltaT = 0.00041302329 s
 Time = 4.9942776 s
 Global linear momentum = (-2205.5712 512.28128 -35.888115)
 Global angular momentum = (-139.09417 -187.66449 9722.8022)
 Simulation completed = 99.885552%

Time Step =12093
 deltaT = 0.00041302329 s
 Time = 4.9946906 s
 Global linear momentum = (-2205.4742 511.47031 -35.880726)
 Global angular momentum = (-139.76942 -187.43898 9722.0041)
 Simulation completed = 99.893812%

Time Step =12094
 deltaT = 0.00041302329 s
 Time = 4.9951036 s
 Global linear momentum = (-2205.3692 510.65684 -35.872281)
 Global angular momentum = (-140.44328 -187.21325 9721.1818)
 Simulation completed = 99.902073%

Time Step =12095
 deltaT = 0.00041302329 s
 Time = 4.9955167 s
 Global linear momentum = (-2205.2561 509.84091 -35.862795)
 Global angular momentum = (-141.11577 -186.98732 9720.3352)
 Simulation completed = 99.910333%

Time Step =12096
 deltaT = 0.00041302329 s
 Time = 4.9959297 s
 Global linear momentum = (-2205.135 509.02253 -35.852282)
 Global angular momentum = (-141.78689 -186.76118 9719.4645)
 Simulation completed = 99.918594%

Time Step =12097
 deltaT = 0.00041302329 s
 Time = 4.9963427 s
 Global linear momentum = (-2205.0058 508.20172 -35.840756)
 Global angular momentum = (-142.45668 -186.53483 9718.5695)
 Simulation completed = 99.926854%

Time Step =12098
 deltaT = 0.00041302329 s
 Time = 4.9967557 s
 Global linear momentum = (-2204.8686 507.37851 -35.828233)
 Global angular momentum = (-143.12514 -186.30827 9717.6504)
 Simulation completed = 99.935114%

Time Step =12099
 deltaT = 0.00041302329 s
 Time = 4.9971687 s
 Global linear momentum = (-2204.7234 506.55292 -35.814727)
 Global angular momentum = (-143.7923 -186.0815 9716.7071)
 Simulation completed = 99.943375%

Time Step =12100
 deltaT = 0.00041302329 s
 Time = 4.9975818 s
 Global linear momentum = (-2204.5701 505.72497 -35.800253)
 Global angular momentum = (-144.45817 -185.85453 9715.7396)
 Simulation completed = 99.951635%

Time Step =12101
 deltaT = 0.00041302329 s
 Time = 4.9979948 s
 Global linear momentum = (-2204.4088 504.89469 -35.784825)
 Global angular momentum = (-145.12277 -185.62735 9714.748)
 Simulation completed = 99.959896%

Time Step =12102
 deltaT = 0.00041302329 s
 Time = 4.9984078 s
 Global linear momentum = (-2204.2394 504.0621 -35.76846)
 Global angular momentum = (-145.78612 -185.39996 9713.7322)
 Simulation completed = 99.968156%

Time Step =12103
 deltaT = 0.00041302329 s
 Time = 4.9988208 s
 Global linear momentum = (-2204.062 503.22722 -35.75117)
 Global angular momentum = (-146.44823 -185.17238 9712.6923)
 Simulation completed = 99.976417%

Time Step =12104
 deltaT = 0.00041302329 s
 Time = 4.9992339 s
 Global linear momentum = (-2203.8766 502.39008 -35.732972)
 Global angular momentum = (-147.10913 -184.94458 9711.6283)
 Simulation completed = 99.984677%

Time Step =12105
 deltaT = 0.00041302329 s
 Time = 4.9996469 s
 Global linear momentum = (-2203.6832 501.55071 -35.713881)
 Global angular momentum = (-147.76884 -184.71659 9710.5402)
 Simulation completed = 99.992938%

Time Step =12106
 deltaT = 0.00041302329 s
 Time = 5.0000599 s
 Global linear momentum = (-2203.4817 500.70913 -35.693911)
 Global angular momentum = (-148.42736 -184.48839 9709.428)
 Simulation completed = 100.0012%

ExecutionTime = 53.85 s  ClockTime = 54 s
End

