/*---------------------------------------------------------------------------*\
  =========                 |
  \\      /  F ield         | OpenFOAM: The Open Source CFD Toolbox
   \\    /   O peration     | Website:  https://openfoam.org
    \\  /    A nd           | Version:  6
     \\/     M anipulation  |
\*---------------------------------------------------------------------------*/
Build  : 6
Exec   : vcALEFoam
Date   : Nov 17 2020
Time   : 17:50:50
Host   : "DESKTOP-JSPBMTA"
PID    : 23280
I/O    : uncollated
Case   : /home/thomas/OpenFOAM/vcALE/tutorials/vcALEFoam/Templates/impactColumn3
nProcs : 1
sigFpe : Enabling floating point exception trapping (FOAM_SIGFPE).
fileModificationChecking : Monitoring run-time modified files using timeStampMaster (fileModificationSkew 10)
allowSystemOperations : Allowing user-supplied system call operations

// * * * * * * * * * * * * * * * * * * * * * * * * * * * * * * * * * * * * * //
Create time

Create mesh for time = 0

Reading dictionaries ...
Reading data from dictionaries ...
value of 'traction': (0 0 0)
GCL technique: withoutInvolution
PHat term: withoutInvolution
Post Processing: desactivated
Average P* coefficient alpha: 0
Computation of solvedW's RHS: use of Pstar (1) or wDot (0): 1
Creating mesh parameters ...
Creating mesh coordinate fields ...
Creating strain measure fields ...
Creating linear momentum field ...
Creating material velocity field ...
Creating material energy field...
Creating constitutive model ...
Creating fields for wave speeds ...
Creating ALE Material Model ...
Creating ALE Spatial Model ...
Creating fields for gradient ...
Creating fields for fluxes ...
Creating fields for post-processing ...
Creating variables for time ...
Printing data ...

Printing material properties ...
Constitutive model = vonMises
Density = 8930 [1 -3 0 0 0 0 0]
Young's modulus = 1.77e+11 [1 -1 -2 0 0 0 0]
Poisson's ratio = 0.35 [0 0 0 0 0 0 0]
Lame's first parameter lambda = 1.5296296e+11 [1 -1 -2 0 0 0 0]
Lame's second parameter mu = 6.5555556e+10 [1 -1 -2 0 0 0 0]
Bulk modulus kappa = 1.9666667e+11 [1 -1 -2 0 0 0 0]
Hardening modulus = 1e+08 [1 -1 -2 0 0 0 0]
Initial yield stress = 4e+08 [0 -1 -2 0 0 0 0]
Linear pressure wave speed = 5640.1424 [0 1 -1 0 0 0 0]
Linear shear wave speed = 2709.4368 [0 1 -1 0 0 0 0]


Model: materialModel
aleModel: neoHookean
fictitious Motion Type: sinusoid_order2inTime
beta: 0
T: 1




Model: spatialModel
aleModel: neoHookean
fictitious Motion Type: sinusoid_order2inTime
beta: 0
T: 1


Printing mesh centroids
Centroid of primal mesh = (0.0013406239 0.0162 0.0013406239)
Centroid of dual mesh = (0.0013406239 0.0162 0.0013406239)

Objects all created !


Post Processing ...

Time Step =1
 deltaT = 1e-08 s
 Time = 1e-08 s
Updating material motion ...
 Simulation completed = 0.0125%

Time Step =2
 deltaT = 1e-08 s
 Time = 2e-08 s
 Simulation completed = 0.025%

Time Step =3
 deltaT = 1e-08 s
 Time = 3e-08 s
Updating material motion ...
 Simulation completed = 0.0375%

Time Step =4
 deltaT = 1e-08 s
 Time = 4e-08 s
 Simulation completed = 0.05%

Time Step =5
 deltaT = 1e-08 s
 Time = 5e-08 s
Updating material motion ...
 Simulation completed = 0.0625%

Time Step =6
 deltaT = 1e-08 s
 Time = 6e-08 s
 Simulation completed = 0.075%

Time Step =7
 deltaT = 1e-08 s
 Time = 7e-08 s
Updating material motion ...
 Simulation completed = 0.0875%

Time Step =8
 deltaT = 1e-08 s
 Time = 8e-08 s
 Simulation completed = 0.1%

Time Step =9
 deltaT = 1e-08 s
 Time = 9e-08 s
Updating material motion ...
 Simulation completed = 0.1125%

Time Step =10
 deltaT = 1e-08 s
 Time = 1e-07 s
 Simulation completed = 0.125%

Time Step =11
 deltaT = 1e-08 s
 Time = 1.1e-07 s
Updating material motion ...
 Simulation completed = 0.1375%

Time Step =12
 deltaT = 1e-08 s
 Time = 1.2e-07 s
 Simulation completed = 0.15%

Time Step =13
 deltaT = 1e-08 s
 Time = 1.3e-07 s
Updating material motion ...
 Simulation completed = 0.1625%

Time Step =14
 deltaT = 1e-08 s
 Time = 1.4e-07 s
 Simulation completed = 0.175%

Time Step =15
 deltaT = 1e-08 s
 Time = 1.5e-07 s
Updating material motion ...
 Simulation completed = 0.1875%

Time Step =16
 deltaT = 1e-08 s
 Time = 1.6e-07 s
 Simulation completed = 0.2%

Time Step =17
 deltaT = 1e-08 s
 Time = 1.7e-07 s
Updating material motion ...
 Simulation completed = 0.2125%

Time Step =18
 deltaT = 1e-08 s
 Time = 1.8e-07 s
 Simulation completed = 0.225%

Time Step =19
 deltaT = 1e-08 s
 Time = 1.9e-07 s
Updating material motion ...
 Simulation completed = 0.2375%

Time Step =20
 deltaT = 1e-08 s
 Time = 2e-07 s
 Simulation completed = 0.25%

Time Step =21
 deltaT = 1e-08 s
 Time = 2.1e-07 s
Updating material motion ...
 Simulation completed = 0.2625%

Time Step =22
 deltaT = 1e-08 s
 Time = 2.2e-07 s
 Simulation completed = 0.275%

Time Step =23
 deltaT = 1e-08 s
 Time = 2.3e-07 s
Updating material motion ...
 Simulation completed = 0.2875%

Time Step =24
 deltaT = 1e-08 s
 Time = 2.4e-07 s
 Simulation completed = 0.3%

Time Step =25
 deltaT = 1e-08 s
 Time = 2.5e-07 s
Updating material motion ...
 Simulation completed = 0.3125%

Time Step =26
 deltaT = 1e-08 s
 Time = 2.6e-07 s
 Simulation completed = 0.325%

Time Step =27
 deltaT = 1e-08 s
 Time = 2.7e-07 s
Updating material motion ...
 Simulation completed = 0.3375%

Time Step =28
 deltaT = 1e-08 s
 Time = 2.8e-07 s
 Simulation completed = 0.35%

Time Step =29
 deltaT = 1e-08 s
 Time = 2.9e-07 s
Updating material motion ...
 Simulation completed = 0.3625%

Time Step =30
 deltaT = 1e-08 s
 Time = 3e-07 s
 Simulation completed = 0.375%

Time Step =31
 deltaT = 1e-08 s
 Time = 3.1e-07 s
Updating material motion ...
 Simulation completed = 0.3875%

Time Step =32
 deltaT = 1e-08 s
 Time = 3.2e-07 s
 Simulation completed = 0.4%

Time Step =33
 deltaT = 1e-08 s
 Time = 3.3e-07 s
Updating material motion ...
 Simulation completed = 0.4125%

Time Step =34
 deltaT = 1e-08 s
 Time = 3.4e-07 s
 Simulation completed = 0.425%

Time Step =35
 deltaT = 1e-08 s
 Time = 3.5e-07 s
Updating material motion ...
 Simulation completed = 0.4375%

Time Step =36
 deltaT = 1e-08 s
 Time = 3.6e-07 s
 Simulation completed = 0.45%

Time Step =37
 deltaT = 1e-08 s
 Time = 3.7e-07 s
Updating material motion ...
 Simulation completed = 0.4625%

Time Step =38
 deltaT = 1e-08 s
 Time = 3.8e-07 s
 Simulation completed = 0.475%

Time Step =39
 deltaT = 1e-08 s
 Time = 3.9e-07 s
Updating material motion ...
 Simulation completed = 0.4875%

Time Step =40
 deltaT = 1e-08 s
 Time = 4e-07 s
 Simulation completed = 0.5%

Time Step =41
 deltaT = 1e-08 s
 Time = 4.1e-07 s
Updating material motion ...
 Simulation completed = 0.5125%

Time Step =42
 deltaT = 1e-08 s
 Time = 4.2e-07 s
 Simulation completed = 0.525%

Time Step =43
 deltaT = 1e-08 s
 Time = 4.3e-07 s
Updating material motion ...
 Simulation completed = 0.5375%

Time Step =44
 deltaT = 1e-08 s
 Time = 4.4e-07 s
 Simulation completed = 0.55%

Time Step =45
 deltaT = 1e-08 s
 Time = 4.5e-07 s
Updating material motion ...
 Simulation completed = 0.5625%

Time Step =46
 deltaT = 1e-08 s
 Time = 4.6e-07 s
 Simulation completed = 0.575%

Time Step =47
 deltaT = 1e-08 s
 Time = 4.7e-07 s
Updating material motion ...
 Simulation completed = 0.5875%

Time Step =48
 deltaT = 1e-08 s
 Time = 4.8e-07 s
 Simulation completed = 0.6%

Time Step =49
 deltaT = 1e-08 s
 Time = 4.9e-07 s
Updating material motion ...
 Simulation completed = 0.6125%

Time Step =50
 deltaT = 1e-08 s
 Time = 5e-07 s
 Simulation completed = 0.625%

Time Step =51
 deltaT = 1e-08 s
 Time = 5.1e-07 s
Updating material motion ...
 Simulation completed = 0.6375%

Time Step =52
 deltaT = 1e-08 s
 Time = 5.2e-07 s
 Simulation completed = 0.65%

Time Step =53
 deltaT = 1e-08 s
 Time = 5.3e-07 s
Updating material motion ...
 Simulation completed = 0.6625%

Time Step =54
 deltaT = 1e-08 s
 Time = 5.4e-07 s
 Simulation completed = 0.675%

Time Step =55
 deltaT = 1e-08 s
 Time = 5.5e-07 s
Updating material motion ...
 Simulation completed = 0.6875%

Time Step =56
 deltaT = 1e-08 s
 Time = 5.6e-07 s
 Simulation completed = 0.7%

Time Step =57
 deltaT = 1e-08 s
 Time = 5.7e-07 s
Updating material motion ...
 Simulation completed = 0.7125%

Time Step =58
 deltaT = 1e-08 s
 Time = 5.8e-07 s
 Simulation completed = 0.725%

Time Step =59
 deltaT = 1e-08 s
 Time = 5.9e-07 s
Updating material motion ...
 Simulation completed = 0.7375%

Time Step =60
 deltaT = 1e-08 s
 Time = 6e-07 s
 Simulation completed = 0.75%

Time Step =61
 deltaT = 1e-08 s
 Time = 6.1e-07 s
Updating material motion ...
 Simulation completed = 0.7625%

Time Step =62
 deltaT = 1e-08 s
 Time = 6.2e-07 s
 Simulation completed = 0.775%

Time Step =63
 deltaT = 1e-08 s
 Time = 6.3e-07 s
Updating material motion ...
 Simulation completed = 0.7875%

Time Step =64
 deltaT = 1e-08 s
 Time = 6.4e-07 s
 Simulation completed = 0.8%

Time Step =65
 deltaT = 1e-08 s
 Time = 6.5e-07 s
Updating material motion ...
 Simulation completed = 0.8125%

Time Step =66
 deltaT = 1e-08 s
 Time = 6.6e-07 s
 Simulation completed = 0.825%

Time Step =67
 deltaT = 1e-08 s
 Time = 6.7e-07 s
Updating material motion ...
 Simulation completed = 0.8375%

Time Step =68
 deltaT = 1e-08 s
 Time = 6.8e-07 s
 Simulation completed = 0.85%

Time Step =69
 deltaT = 1e-08 s
 Time = 6.9e-07 s
Updating material motion ...
 Simulation completed = 0.8625%

Time Step =70
 deltaT = 1e-08 s
 Time = 7e-07 s
 Simulation completed = 0.875%

Time Step =71
 deltaT = 1e-08 s
 Time = 7.1e-07 s
Updating material motion ...
 Simulation completed = 0.8875%

Time Step =72
 deltaT = 1e-08 s
 Time = 7.2e-07 s
 Simulation completed = 0.9%

Time Step =73
 deltaT = 1e-08 s
 Time = 7.3e-07 s
Updating material motion ...
 Simulation completed = 0.9125%

Time Step =74
 deltaT = 1e-08 s
 Time = 7.4e-07 s
 Simulation completed = 0.925%

Time Step =75
 deltaT = 1e-08 s
 Time = 7.5e-07 s
Updating material motion ...
 Simulation completed = 0.9375%

Time Step =76
 deltaT = 1e-08 s
 Time = 7.6e-07 s
 Simulation completed = 0.95%

Time Step =77
 deltaT = 1e-08 s
 Time = 7.7e-07 s
Updating material motion ...
 Simulation completed = 0.9625%

Time Step =78
 deltaT = 1e-08 s
 Time = 7.8e-07 s
 Simulation completed = 0.975%

Time Step =79
 deltaT = 1e-08 s
 Time = 7.9e-07 s
Updating material motion ...
 Simulation completed = 0.9875%

Time Step =80
 deltaT = 1e-08 s
 Time = 8e-07 s
 Simulation completed = 1%

Time Step =81
 deltaT = 1e-08 s
 Time = 8.1e-07 s
Updating material motion ...
 Simulation completed = 1.0125%

Time Step =82
 deltaT = 1e-08 s
 Time = 8.2e-07 s
 Simulation completed = 1.025%

Time Step =83
 deltaT = 1e-08 s
 Time = 8.3e-07 s
Updating material motion ...
 Simulation completed = 1.0375%

Time Step =84
 deltaT = 1e-08 s
 Time = 8.4e-07 s
 Simulation completed = 1.05%

Time Step =85
 deltaT = 1e-08 s
 Time = 8.5e-07 s
Updating material motion ...
 Simulation completed = 1.0625%

Time Step =86
 deltaT = 1e-08 s
 Time = 8.6e-07 s
 Simulation completed = 1.075%

Time Step =87
 deltaT = 1e-08 s
 Time = 8.7e-07 s
Updating material motion ...
 Simulation completed = 1.0875%

Time Step =88
 deltaT = 1e-08 s
 Time = 8.8e-07 s
 Simulation completed = 1.1%

Time Step =89
 deltaT = 1e-08 s
 Time = 8.9e-07 s
Updating material motion ...
 Simulation completed = 1.1125%

Time Step =90
 deltaT = 1e-08 s
 Time = 9e-07 s
 Simulation completed = 1.125%

Time Step =91
 deltaT = 1e-08 s
 Time = 9.1e-07 s
Updating material motion ...
 Simulation completed = 1.1375%

Time Step =92
 deltaT = 1e-08 s
 Time = 9.2e-07 s
 Simulation completed = 1.15%

Time Step =93
 deltaT = 1e-08 s
 Time = 9.3e-07 s
Updating material motion ...
 Simulation completed = 1.1625%

Time Step =94
 deltaT = 1e-08 s
 Time = 9.4e-07 s
 Simulation completed = 1.175%

Time Step =95
 deltaT = 1e-08 s
 Time = 9.5e-07 s
Updating material motion ...
 Simulation completed = 1.1875%

Time Step =96
 deltaT = 1e-08 s
 Time = 9.6e-07 s
 Simulation completed = 1.2%

Time Step =97
 deltaT = 1e-08 s
 Time = 9.7e-07 s
Updating material motion ...
 Simulation completed = 1.2125%

Time Step =98
 deltaT = 1e-08 s
 Time = 9.8e-07 s
 Simulation completed = 1.225%

Time Step =99
 deltaT = 1e-08 s
 Time = 9.9e-07 s
Updating material motion ...
 Simulation completed = 1.2375%

Time Step =100
 deltaT = 1e-08 s
 Time = 1e-06 s
Post Processing ...
 Simulation completed = 1.25%

Time Step =101
 deltaT = 1e-08 s
 Time = 1.01e-06 s
Updating material motion ...
 Simulation completed = 1.2625%

Time Step =102
 deltaT = 1e-08 s
 Time = 1.02e-06 s
 Simulation completed = 1.275%

Time Step =103
 deltaT = 1e-08 s
 Time = 1.03e-06 s
Updating material motion ...
 Simulation completed = 1.2875%

Time Step =104
 deltaT = 1e-08 s
 Time = 1.04e-06 s
 Simulation completed = 1.3%

Time Step =105
 deltaT = 1e-08 s
 Time = 1.05e-06 s
Updating material motion ...
 Simulation completed = 1.3125%

Time Step =106
 deltaT = 1e-08 s
 Time = 1.06e-06 s
 Simulation completed = 1.325%

Time Step =107
 deltaT = 1e-08 s
 Time = 1.07e-06 s
Updating material motion ...
 Simulation completed = 1.3375%

Time Step =108
 deltaT = 1e-08 s
 Time = 1.08e-06 s
 Simulation completed = 1.35%

Time Step =109
 deltaT = 1e-08 s
 Time = 1.09e-06 s
Updating material motion ...
 Simulation completed = 1.3625%

Time Step =110
 deltaT = 1e-08 s
 Time = 1.1e-06 s
 Simulation completed = 1.375%

Time Step =111
 deltaT = 1e-08 s
 Time = 1.11e-06 s
Updating material motion ...
 Simulation completed = 1.3875%

Time Step =112
 deltaT = 1e-08 s
 Time = 1.12e-06 s
 Simulation completed = 1.4%

Time Step =113
 deltaT = 1e-08 s
 Time = 1.13e-06 s
Updating material motion ...
 Simulation completed = 1.4125%

Time Step =114
 deltaT = 1e-08 s
 Time = 1.14e-06 s
 Simulation completed = 1.425%

Time Step =115
 deltaT = 1e-08 s
 Time = 1.15e-06 s
Updating material motion ...
 Simulation completed = 1.4375%

Time Step =116
 deltaT = 1e-08 s
 Time = 1.16e-06 s
 Simulation completed = 1.45%

Time Step =117
 deltaT = 1e-08 s
 Time = 1.17e-06 s
Updating material motion ...
 Simulation completed = 1.4625%

Time Step =118
 deltaT = 1e-08 s
 Time = 1.18e-06 s
 Simulation completed = 1.475%

Time Step =119
 deltaT = 1e-08 s
 Time = 1.19e-06 s
Updating material motion ...
 Simulation completed = 1.4875%

Time Step =120
 deltaT = 1e-08 s
 Time = 1.2e-06 s
 Simulation completed = 1.5%

Time Step =121
 deltaT = 1e-08 s
 Time = 1.21e-06 s
Updating material motion ...
 Simulation completed = 1.5125%

Time Step =122
 deltaT = 1e-08 s
 Time = 1.22e-06 s
 Simulation completed = 1.525%

Time Step =123
 deltaT = 1e-08 s
 Time = 1.23e-06 s
Updating material motion ...
 Simulation completed = 1.5375%

Time Step =124
 deltaT = 1e-08 s
 Time = 1.24e-06 s
 Simulation completed = 1.55%

Time Step =125
 deltaT = 1e-08 s
 Time = 1.25e-06 s
Updating material motion ...
 Simulation completed = 1.5625%

Time Step =126
 deltaT = 1e-08 s
 Time = 1.26e-06 s
 Simulation completed = 1.575%

Time Step =127
 deltaT = 1e-08 s
 Time = 1.27e-06 s
Updating material motion ...
 Simulation completed = 1.5875%

Time Step =128
 deltaT = 1e-08 s
 Time = 1.28e-06 s
 Simulation completed = 1.6%

Time Step =129
 deltaT = 1e-08 s
 Time = 1.29e-06 s
Updating material motion ...
 Simulation completed = 1.6125%

Time Step =130
 deltaT = 1e-08 s
 Time = 1.3e-06 s
 Simulation completed = 1.625%

Time Step =131
 deltaT = 1e-08 s
 Time = 1.31e-06 s
Updating material motion ...
 Simulation completed = 1.6375%

Time Step =132
 deltaT = 1e-08 s
 Time = 1.32e-06 s
 Simulation completed = 1.65%

Time Step =133
 deltaT = 1e-08 s
 Time = 1.33e-06 s
Updating material motion ...
 Simulation completed = 1.6625%

Time Step =134
 deltaT = 1e-08 s
 Time = 1.34e-06 s
 Simulation completed = 1.675%

Time Step =135
 deltaT = 1e-08 s
 Time = 1.35e-06 s
Updating material motion ...
 Simulation completed = 1.6875%

Time Step =136
 deltaT = 1e-08 s
 Time = 1.36e-06 s
 Simulation completed = 1.7%

Time Step =137
 deltaT = 1e-08 s
 Time = 1.37e-06 s
Updating material motion ...
 Simulation completed = 1.7125%

Time Step =138
 deltaT = 1e-08 s
 Time = 1.38e-06 s
 Simulation completed = 1.725%

Time Step =139
 deltaT = 1e-08 s
 Time = 1.39e-06 s
Updating material motion ...
 Simulation completed = 1.7375%

Time Step =140
 deltaT = 1e-08 s
 Time = 1.4e-06 s
 Simulation completed = 1.75%

Time Step =141
 deltaT = 1e-08 s
 Time = 1.41e-06 s
Updating material motion ...
 Simulation completed = 1.7625%

Time Step =142
 deltaT = 1e-08 s
 Time = 1.42e-06 s
 Simulation completed = 1.775%

Time Step =143
 deltaT = 1e-08 s
 Time = 1.43e-06 s
Updating material motion ...
 Simulation completed = 1.7875%

Time Step =144
 deltaT = 1e-08 s
 Time = 1.44e-06 s
 Simulation completed = 1.8%

Time Step =145
 deltaT = 1e-08 s
 Time = 1.45e-06 s
Updating material motion ...
 Simulation completed = 1.8125%

Time Step =146
 deltaT = 1e-08 s
 Time = 1.46e-06 s
 Simulation completed = 1.825%

Time Step =147
 deltaT = 1e-08 s
 Time = 1.47e-06 s
Updating material motion ...
 Simulation completed = 1.8375%

Time Step =148
 deltaT = 1e-08 s
 Time = 1.48e-06 s
 Simulation completed = 1.85%

Time Step =149
 deltaT = 1e-08 s
 Time = 1.49e-06 s
Updating material motion ...
 Simulation completed = 1.8625%

Time Step =150
 deltaT = 1e-08 s
 Time = 1.5e-06 s
 Simulation completed = 1.875%

Time Step =151
 deltaT = 1e-08 s
 Time = 1.51e-06 s
Updating material motion ...
 Simulation completed = 1.8875%

Time Step =152
 deltaT = 1e-08 s
 Time = 1.52e-06 s
 Simulation completed = 1.9%

Time Step =153
 deltaT = 1e-08 s
 Time = 1.53e-06 s
Updating material motion ...
 Simulation completed = 1.9125%

Time Step =154
 deltaT = 1e-08 s
 Time = 1.54e-06 s
 Simulation completed = 1.925%

Time Step =155
 deltaT = 1e-08 s
 Time = 1.55e-06 s
Updating material motion ...
 Simulation completed = 1.9375%

Time Step =156
 deltaT = 1e-08 s
 Time = 1.56e-06 s
 Simulation completed = 1.95%

Time Step =157
 deltaT = 1e-08 s
 Time = 1.57e-06 s
Updating material motion ...
 Simulation completed = 1.9625%

Time Step =158
 deltaT = 1e-08 s
 Time = 1.58e-06 s
 Simulation completed = 1.975%

Time Step =159
 deltaT = 1e-08 s
 Time = 1.59e-06 s
Updating material motion ...
 Simulation completed = 1.9875%

Time Step =160
 deltaT = 1e-08 s
 Time = 1.6e-06 s
 Simulation completed = 2%

Time Step =161
 deltaT = 1e-08 s
 Time = 1.61e-06 s
Updating material motion ...
 Simulation completed = 2.0125%

Time Step =162
 deltaT = 1e-08 s
 Time = 1.62e-06 s
 Simulation completed = 2.025%

Time Step =163
 deltaT = 1e-08 s
 Time = 1.63e-06 s
Updating material motion ...
 Simulation completed = 2.0375%

Time Step =164
 deltaT = 1e-08 s
 Time = 1.64e-06 s
 Simulation completed = 2.05%

Time Step =165
 deltaT = 1e-08 s
 Time = 1.65e-06 s
Updating material motion ...
 Simulation completed = 2.0625%

Time Step =166
 deltaT = 1e-08 s
 Time = 1.66e-06 s
 Simulation completed = 2.075%

Time Step =167
 deltaT = 1e-08 s
 Time = 1.67e-06 s
Updating material motion ...
 Simulation completed = 2.0875%

Time Step =168
 deltaT = 1e-08 s
 Time = 1.68e-06 s
 Simulation completed = 2.1%

Time Step =169
 deltaT = 1e-08 s
 Time = 1.69e-06 s
Updating material motion ...
 Simulation completed = 2.1125%

Time Step =170
 deltaT = 1e-08 s
 Time = 1.7e-06 s
 Simulation completed = 2.125%

Time Step =171
 deltaT = 1e-08 s
 Time = 1.71e-06 s
Updating material motion ...
 Simulation completed = 2.1375%

Time Step =172
 deltaT = 1e-08 s
 Time = 1.72e-06 s
 Simulation completed = 2.15%

Time Step =173
 deltaT = 1e-08 s
 Time = 1.73e-06 s
Updating material motion ...
 Simulation completed = 2.1625%

Time Step =174
 deltaT = 1e-08 s
 Time = 1.74e-06 s
 Simulation completed = 2.175%

Time Step =175
 deltaT = 1e-08 s
 Time = 1.75e-06 s
Updating material motion ...
 Simulation completed = 2.1875%

Time Step =176
 deltaT = 1e-08 s
 Time = 1.76e-06 s
 Simulation completed = 2.2%

Time Step =177
 deltaT = 1e-08 s
 Time = 1.77e-06 s
Updating material motion ...
 Simulation completed = 2.2125%

Time Step =178
 deltaT = 1e-08 s
 Time = 1.78e-06 s
 Simulation completed = 2.225%

Time Step =179
 deltaT = 1e-08 s
 Time = 1.79e-06 s
Updating material motion ...
 Simulation completed = 2.2375%

Time Step =180
 deltaT = 1e-08 s
 Time = 1.8e-06 s
 Simulation completed = 2.25%

Time Step =181
 deltaT = 1e-08 s
 Time = 1.81e-06 s
Updating material motion ...
 Simulation completed = 2.2625%

Time Step =182
 deltaT = 1e-08 s
 Time = 1.82e-06 s
 Simulation completed = 2.275%

Time Step =183
 deltaT = 1e-08 s
 Time = 1.83e-06 s
Updating material motion ...
 Simulation completed = 2.2875%

Time Step =184
 deltaT = 1e-08 s
 Time = 1.84e-06 s
 Simulation completed = 2.3%

Time Step =185
 deltaT = 1e-08 s
 Time = 1.85e-06 s
Updating material motion ...
 Simulation completed = 2.3125%

Time Step =186
 deltaT = 1e-08 s
 Time = 1.86e-06 s
 Simulation completed = 2.325%

Time Step =187
 deltaT = 1e-08 s
 Time = 1.87e-06 s
Updating material motion ...
 Simulation completed = 2.3375%

Time Step =188
 deltaT = 1e-08 s
 Time = 1.88e-06 s
 Simulation completed = 2.35%

Time Step =189
 deltaT = 1e-08 s
 Time = 1.89e-06 s
Updating material motion ...
 Simulation completed = 2.3625%

Time Step =190
 deltaT = 1e-08 s
 Time = 1.9e-06 s
 Simulation completed = 2.375%

Time Step =191
 deltaT = 1e-08 s
 Time = 1.91e-06 s
Updating material motion ...
 Simulation completed = 2.3875%

Time Step =192
 deltaT = 1e-08 s
 Time = 1.92e-06 s
 Simulation completed = 2.4%

Time Step =193
 deltaT = 1e-08 s
 Time = 1.93e-06 s
Updating material motion ...
 Simulation completed = 2.4125%

Time Step =194
 deltaT = 1e-08 s
 Time = 1.94e-06 s
 Simulation completed = 2.425%

Time Step =195
 deltaT = 1e-08 s
 Time = 1.95e-06 s
Updating material motion ...
 Simulation completed = 2.4375%

Time Step =196
 deltaT = 1e-08 s
 Time = 1.96e-06 s
 Simulation completed = 2.45%

Time Step =197
 deltaT = 1e-08 s
 Time = 1.97e-06 s
Updating material motion ...
 Simulation completed = 2.4625%

Time Step =198
 deltaT = 1e-08 s
 Time = 1.98e-06 s
 Simulation completed = 2.475%

Time Step =199
 deltaT = 1e-08 s
 Time = 1.99e-06 s
Updating material motion ...
 Simulation completed = 2.4875%

Time Step =200
 deltaT = 1e-08 s
 Time = 2e-06 s
Post Processing ...
 Simulation completed = 2.5%

Time Step =201
 deltaT = 1e-08 s
 Time = 2.01e-06 s
Updating material motion ...
 Simulation completed = 2.5125%

Time Step =202
 deltaT = 1e-08 s
 Time = 2.02e-06 s
 Simulation completed = 2.525%

Time Step =203
 deltaT = 1e-08 s
 Time = 2.03e-06 s
Updating material motion ...
 Simulation completed = 2.5375%

Time Step =204
 deltaT = 1e-08 s
 Time = 2.04e-06 s
 Simulation completed = 2.55%

Time Step =205
 deltaT = 1e-08 s
 Time = 2.05e-06 s
Updating material motion ...
 Simulation completed = 2.5625%

Time Step =206
 deltaT = 1e-08 s
 Time = 2.06e-06 s
 Simulation completed = 2.575%

Time Step =207
 deltaT = 1e-08 s
 Time = 2.07e-06 s
Updating material motion ...
 Simulation completed = 2.5875%

Time Step =208
 deltaT = 1e-08 s
 Time = 2.08e-06 s
 Simulation completed = 2.6%

Time Step =209
 deltaT = 1e-08 s
 Time = 2.09e-06 s
Updating material motion ...
 Simulation completed = 2.6125%

Time Step =210
 deltaT = 1e-08 s
 Time = 2.1e-06 s
 Simulation completed = 2.625%

Time Step =211
 deltaT = 1e-08 s
 Time = 2.11e-06 s
Updating material motion ...
 Simulation completed = 2.6375%

Time Step =212
 deltaT = 1e-08 s
 Time = 2.12e-06 s
 Simulation completed = 2.65%

Time Step =213
 deltaT = 1e-08 s
 Time = 2.13e-06 s
Updating material motion ...
 Simulation completed = 2.6625%

Time Step =214
 deltaT = 1e-08 s
 Time = 2.14e-06 s
 Simulation completed = 2.675%

Time Step =215
 deltaT = 1e-08 s
 Time = 2.15e-06 s
Updating material motion ...
 Simulation completed = 2.6875%

Time Step =216
 deltaT = 1e-08 s
 Time = 2.16e-06 s
 Simulation completed = 2.7%

Time Step =217
 deltaT = 1e-08 s
 Time = 2.17e-06 s
Updating material motion ...
 Simulation completed = 2.7125%

Time Step =218
 deltaT = 1e-08 s
 Time = 2.18e-06 s
 Simulation completed = 2.725%

Time Step =219
 deltaT = 1e-08 s
 Time = 2.19e-06 s
Updating material motion ...
 Simulation completed = 2.7375%

Time Step =220
 deltaT = 1e-08 s
 Time = 2.2e-06 s
 Simulation completed = 2.75%

Time Step =221
 deltaT = 1e-08 s
 Time = 2.21e-06 s
Updating material motion ...
 Simulation completed = 2.7625%

Time Step =222
 deltaT = 1e-08 s
 Time = 2.22e-06 s
 Simulation completed = 2.775%

Time Step =223
 deltaT = 1e-08 s
 Time = 2.23e-06 s
Updating material motion ...
 Simulation completed = 2.7875%

Time Step =224
 deltaT = 1e-08 s
 Time = 2.24e-06 s
 Simulation completed = 2.8%

Time Step =225
 deltaT = 1e-08 s
 Time = 2.25e-06 s
Updating material motion ...
 Simulation completed = 2.8125%

Time Step =226
 deltaT = 1e-08 s
 Time = 2.26e-06 s
 Simulation completed = 2.825%

Time Step =227
 deltaT = 1e-08 s
 Time = 2.27e-06 s
Updating material motion ...
 Simulation completed = 2.8375%

Time Step =228
 deltaT = 1e-08 s
 Time = 2.28e-06 s
 Simulation completed = 2.85%

Time Step =229
 deltaT = 1e-08 s
 Time = 2.29e-06 s
Updating material motion ...
 Simulation completed = 2.8625%

Time Step =230
 deltaT = 1e-08 s
 Time = 2.3e-06 s
 Simulation completed = 2.875%

Time Step =231
 deltaT = 1e-08 s
 Time = 2.31e-06 s
Updating material motion ...
 Simulation completed = 2.8875%

Time Step =232
 deltaT = 1e-08 s
 Time = 2.32e-06 s
 Simulation completed = 2.9%

Time Step =233
 deltaT = 1e-08 s
 Time = 2.33e-06 s
Updating material motion ...
 Simulation completed = 2.9125%

Time Step =234
 deltaT = 1e-08 s
 Time = 2.34e-06 s
 Simulation completed = 2.925%

Time Step =235
 deltaT = 1e-08 s
 Time = 2.35e-06 s
Updating material motion ...
 Simulation completed = 2.9375%

Time Step =236
 deltaT = 1e-08 s
 Time = 2.36e-06 s
 Simulation completed = 2.95%

Time Step =237
 deltaT = 1e-08 s
 Time = 2.37e-06 s
Updating material motion ...
 Simulation completed = 2.9625%

Time Step =238
 deltaT = 1e-08 s
 Time = 2.38e-06 s
 Simulation completed = 2.975%

Time Step =239
 deltaT = 1e-08 s
 Time = 2.39e-06 s
Updating material motion ...
 Simulation completed = 2.9875%

Time Step =240
 deltaT = 1e-08 s
 Time = 2.4e-06 s
 Simulation completed = 3%

Time Step =241
 deltaT = 1e-08 s
 Time = 2.41e-06 s
Updating material motion ...
 Simulation completed = 3.0125%

Time Step =242
 deltaT = 1e-08 s
 Time = 2.42e-06 s
 Simulation completed = 3.025%

Time Step =243
 deltaT = 1e-08 s
 Time = 2.43e-06 s
Updating material motion ...
 Simulation completed = 3.0375%

Time Step =244
 deltaT = 1e-08 s
 Time = 2.44e-06 s
 Simulation completed = 3.05%

Time Step =245
 deltaT = 1e-08 s
 Time = 2.45e-06 s
Updating material motion ...
 Simulation completed = 3.0625%

Time Step =246
 deltaT = 1e-08 s
 Time = 2.46e-06 s
 Simulation completed = 3.075%

Time Step =247
 deltaT = 1e-08 s
 Time = 2.47e-06 s
Updating material motion ...
 Simulation completed = 3.0875%

Time Step =248
 deltaT = 1e-08 s
 Time = 2.48e-06 s
 Simulation completed = 3.1%

Time Step =249
 deltaT = 1e-08 s
 Time = 2.49e-06 s
Updating material motion ...
 Simulation completed = 3.1125%

Time Step =250
 deltaT = 1e-08 s
 Time = 2.5e-06 s
 Simulation completed = 3.125%

Time Step =251
 deltaT = 1e-08 s
 Time = 2.51e-06 s
Updating material motion ...
 Simulation completed = 3.1375%

Time Step =252
 deltaT = 1e-08 s
 Time = 2.52e-06 s
 Simulation completed = 3.15%

Time Step =253
 deltaT = 1e-08 s
 Time = 2.53e-06 s
Updating material motion ...
 Simulation completed = 3.1625%

Time Step =254
 deltaT = 1e-08 s
 Time = 2.54e-06 s
 Simulation completed = 3.175%

Time Step =255
 deltaT = 1e-08 s
 Time = 2.55e-06 s
Updating material motion ...
 Simulation completed = 3.1875%

Time Step =256
 deltaT = 1e-08 s
 Time = 2.56e-06 s
 Simulation completed = 3.2%

Time Step =257
 deltaT = 1e-08 s
 Time = 2.57e-06 s
Updating material motion ...
 Simulation completed = 3.2125%

Time Step =258
 deltaT = 1e-08 s
 Time = 2.58e-06 s
 Simulation completed = 3.225%

Time Step =259
 deltaT = 1e-08 s
 Time = 2.59e-06 s
Updating material motion ...
 Simulation completed = 3.2375%

Time Step =260
 deltaT = 1e-08 s
 Time = 2.6e-06 s
 Simulation completed = 3.25%

Time Step =261
 deltaT = 1e-08 s
 Time = 2.61e-06 s
Updating material motion ...
 Simulation completed = 3.2625%

Time Step =262
 deltaT = 1e-08 s
 Time = 2.62e-06 s
 Simulation completed = 3.275%

Time Step =263
 deltaT = 1e-08 s
 Time = 2.63e-06 s
Updating material motion ...
 Simulation completed = 3.2875%

Time Step =264
 deltaT = 1e-08 s
 Time = 2.64e-06 s
 Simulation completed = 3.3%

Time Step =265
 deltaT = 1e-08 s
 Time = 2.65e-06 s
Updating material motion ...
 Simulation completed = 3.3125%

Time Step =266
 deltaT = 1e-08 s
 Time = 2.66e-06 s
 Simulation completed = 3.325%

Time Step =267
 deltaT = 1e-08 s
 Time = 2.67e-06 s
Updating material motion ...
 Simulation completed = 3.3375%

Time Step =268
 deltaT = 1e-08 s
 Time = 2.68e-06 s
 Simulation completed = 3.35%

Time Step =269
 deltaT = 1e-08 s
 Time = 2.69e-06 s
Updating material motion ...
 Simulation completed = 3.3625%

Time Step =270
 deltaT = 1e-08 s
 Time = 2.7e-06 s
 Simulation completed = 3.375%

Time Step =271
 deltaT = 1e-08 s
 Time = 2.71e-06 s
Updating material motion ...
 Simulation completed = 3.3875%

Time Step =272
 deltaT = 1e-08 s
 Time = 2.72e-06 s
 Simulation completed = 3.4%

Time Step =273
 deltaT = 1e-08 s
 Time = 2.73e-06 s
Updating material motion ...
 Simulation completed = 3.4125%

Time Step =274
 deltaT = 1e-08 s
 Time = 2.74e-06 s
 Simulation completed = 3.425%

Time Step =275
 deltaT = 1e-08 s
 Time = 2.75e-06 s
Updating material motion ...
 Simulation completed = 3.4375%

Time Step =276
 deltaT = 1e-08 s
 Time = 2.76e-06 s
 Simulation completed = 3.45%

Time Step =277
 deltaT = 1e-08 s
 Time = 2.77e-06 s
Updating material motion ...
 Simulation completed = 3.4625%

Time Step =278
 deltaT = 1e-08 s
 Time = 2.78e-06 s
 Simulation completed = 3.475%

Time Step =279
 deltaT = 1e-08 s
 Time = 2.79e-06 s
Updating material motion ...
 Simulation completed = 3.4875%

Time Step =280
 deltaT = 1e-08 s
 Time = 2.8e-06 s
 Simulation completed = 3.5%

Time Step =281
 deltaT = 1e-08 s
 Time = 2.81e-06 s
Updating material motion ...
 Simulation completed = 3.5125%

Time Step =282
 deltaT = 1e-08 s
 Time = 2.82e-06 s
 Simulation completed = 3.525%

Time Step =283
 deltaT = 1e-08 s
 Time = 2.83e-06 s
Updating material motion ...
 Simulation completed = 3.5375%

Time Step =284
 deltaT = 1e-08 s
 Time = 2.84e-06 s
 Simulation completed = 3.55%

Time Step =285
 deltaT = 1e-08 s
 Time = 2.85e-06 s
Updating material motion ...
 Simulation completed = 3.5625%

Time Step =286
 deltaT = 1e-08 s
 Time = 2.86e-06 s
 Simulation completed = 3.575%

Time Step =287
 deltaT = 1e-08 s
 Time = 2.87e-06 s
Updating material motion ...
 Simulation completed = 3.5875%

Time Step =288
 deltaT = 1e-08 s
 Time = 2.88e-06 s
 Simulation completed = 3.6%

Time Step =289
 deltaT = 1e-08 s
 Time = 2.89e-06 s
Updating material motion ...
 Simulation completed = 3.6125%

Time Step =290
 deltaT = 1e-08 s
 Time = 2.9e-06 s
 Simulation completed = 3.625%

Time Step =291
 deltaT = 1e-08 s
 Time = 2.91e-06 s
Updating material motion ...
 Simulation completed = 3.6375%

Time Step =292
 deltaT = 1e-08 s
 Time = 2.92e-06 s
 Simulation completed = 3.65%

Time Step =293
 deltaT = 1e-08 s
 Time = 2.93e-06 s
Updating material motion ...
 Simulation completed = 3.6625%

Time Step =294
 deltaT = 1e-08 s
 Time = 2.94e-06 s
 Simulation completed = 3.675%

Time Step =295
 deltaT = 1e-08 s
 Time = 2.95e-06 s
Updating material motion ...
 Simulation completed = 3.6875%

Time Step =296
 deltaT = 1e-08 s
 Time = 2.96e-06 s
 Simulation completed = 3.7%

Time Step =297
 deltaT = 1e-08 s
 Time = 2.97e-06 s
Updating material motion ...
 Simulation completed = 3.7125%

Time Step =298
 deltaT = 1e-08 s
 Time = 2.98e-06 s
 Simulation completed = 3.725%

Time Step =299
 deltaT = 1e-08 s
 Time = 2.99e-06 s
Updating material motion ...
 Simulation completed = 3.7375%

Time Step =300
 deltaT = 1e-08 s
 Time = 3e-06 s
Post Processing ...
 Simulation completed = 3.75%

Time Step =301
 deltaT = 1e-08 s
 Time = 3.01e-06 s
Updating material motion ...
 Simulation completed = 3.7625%

Time Step =302
 deltaT = 1e-08 s
 Time = 3.02e-06 s
 Simulation completed = 3.775%

Time Step =303
 deltaT = 1e-08 s
 Time = 3.03e-06 s
Updating material motion ...
 Simulation completed = 3.7875%

Time Step =304
 deltaT = 1e-08 s
 Time = 3.04e-06 s
 Simulation completed = 3.8%

Time Step =305
 deltaT = 1e-08 s
 Time = 3.05e-06 s
Updating material motion ...
 Simulation completed = 3.8125%

Time Step =306
 deltaT = 1e-08 s
 Time = 3.06e-06 s
 Simulation completed = 3.825%

Time Step =307
 deltaT = 1e-08 s
 Time = 3.07e-06 s
Updating material motion ...
 Simulation completed = 3.8375%

Time Step =308
 deltaT = 1e-08 s
 Time = 3.08e-06 s
 Simulation completed = 3.85%

Time Step =309
 deltaT = 1e-08 s
 Time = 3.09e-06 s
Updating material motion ...
 Simulation completed = 3.8625%

Time Step =310
 deltaT = 1e-08 s
 Time = 3.1e-06 s
 Simulation completed = 3.875%

Time Step =311
 deltaT = 1e-08 s
 Time = 3.11e-06 s
Updating material motion ...
 Simulation completed = 3.8875%

Time Step =312
 deltaT = 1e-08 s
 Time = 3.12e-06 s
 Simulation completed = 3.9%

Time Step =313
 deltaT = 1e-08 s
 Time = 3.13e-06 s
Updating material motion ...
 Simulation completed = 3.9125%

Time Step =314
 deltaT = 1e-08 s
 Time = 3.14e-06 s
 Simulation completed = 3.925%

Time Step =315
 deltaT = 1e-08 s
 Time = 3.15e-06 s
Updating material motion ...
 Simulation completed = 3.9375%

Time Step =316
 deltaT = 1e-08 s
 Time = 3.16e-06 s
 Simulation completed = 3.95%

Time Step =317
 deltaT = 1e-08 s
 Time = 3.17e-06 s
Updating material motion ...
 Simulation completed = 3.9625%

Time Step =318
 deltaT = 1e-08 s
 Time = 3.18e-06 s
 Simulation completed = 3.975%

Time Step =319
 deltaT = 1e-08 s
 Time = 3.19e-06 s
Updating material motion ...
 Simulation completed = 3.9875%

Time Step =320
 deltaT = 1e-08 s
 Time = 3.2e-06 s
 Simulation completed = 4%

Time Step =321
 deltaT = 1e-08 s
 Time = 3.21e-06 s
Updating material motion ...
 Simulation completed = 4.0125%

Time Step =322
 deltaT = 1e-08 s
 Time = 3.22e-06 s
 Simulation completed = 4.025%

Time Step =323
 deltaT = 1e-08 s
 Time = 3.23e-06 s
Updating material motion ...
 Simulation completed = 4.0375%

Time Step =324
 deltaT = 1e-08 s
 Time = 3.24e-06 s
 Simulation completed = 4.05%

Time Step =325
 deltaT = 1e-08 s
 Time = 3.25e-06 s
Updating material motion ...
 Simulation completed = 4.0625%

Time Step =326
 deltaT = 1e-08 s
 Time = 3.26e-06 s
 Simulation completed = 4.075%

Time Step =327
 deltaT = 1e-08 s
 Time = 3.27e-06 s
Updating material motion ...
 Simulation completed = 4.0875%

Time Step =328
 deltaT = 1e-08 s
 Time = 3.28e-06 s
 Simulation completed = 4.1%

Time Step =329
 deltaT = 1e-08 s
 Time = 3.29e-06 s
Updating material motion ...
 Simulation completed = 4.1125%

Time Step =330
 deltaT = 1e-08 s
 Time = 3.3e-06 s
 Simulation completed = 4.125%

Time Step =331
 deltaT = 1e-08 s
 Time = 3.31e-06 s
Updating material motion ...
 Simulation completed = 4.1375%

Time Step =332
 deltaT = 1e-08 s
 Time = 3.32e-06 s
 Simulation completed = 4.15%

Time Step =333
 deltaT = 1e-08 s
 Time = 3.33e-06 s
Updating material motion ...
 Simulation completed = 4.1625%

Time Step =334
 deltaT = 1e-08 s
 Time = 3.34e-06 s
 Simulation completed = 4.175%

Time Step =335
 deltaT = 1e-08 s
 Time = 3.35e-06 s
Updating material motion ...
 Simulation completed = 4.1875%

Time Step =336
 deltaT = 1e-08 s
 Time = 3.36e-06 s
 Simulation completed = 4.2%

Time Step =337
 deltaT = 1e-08 s
 Time = 3.37e-06 s
Updating material motion ...
 Simulation completed = 4.2125%

Time Step =338
 deltaT = 1e-08 s
 Time = 3.38e-06 s
 Simulation completed = 4.225%

Time Step =339
 deltaT = 1e-08 s
 Time = 3.39e-06 s
Updating material motion ...
 Simulation completed = 4.2375%

Time Step =340
 deltaT = 1e-08 s
 Time = 3.4e-06 s
 Simulation completed = 4.25%

Time Step =341
 deltaT = 1e-08 s
 Time = 3.41e-06 s
Updating material motion ...
 Simulation completed = 4.2625%

Time Step =342
 deltaT = 1e-08 s
 Time = 3.42e-06 s
 Simulation completed = 4.275%

Time Step =343
 deltaT = 1e-08 s
 Time = 3.43e-06 s
Updating material motion ...
 Simulation completed = 4.2875%

Time Step =344
 deltaT = 1e-08 s
 Time = 3.44e-06 s
 Simulation completed = 4.3%

Time Step =345
 deltaT = 1e-08 s
 Time = 3.45e-06 s
Updating material motion ...
 Simulation completed = 4.3125%

Time Step =346
 deltaT = 1e-08 s
 Time = 3.46e-06 s
 Simulation completed = 4.325%

Time Step =347
 deltaT = 1e-08 s
 Time = 3.47e-06 s
Updating material motion ...
 Simulation completed = 4.3375%

Time Step =348
 deltaT = 1e-08 s
 Time = 3.48e-06 s
 Simulation completed = 4.35%

Time Step =349
 deltaT = 1e-08 s
 Time = 3.49e-06 s
Updating material motion ...
 Simulation completed = 4.3625%

Time Step =350
 deltaT = 1e-08 s
 Time = 3.5e-06 s
 Simulation completed = 4.375%

Time Step =351
 deltaT = 1e-08 s
 Time = 3.51e-06 s
Updating material motion ...
 Simulation completed = 4.3875%

Time Step =352
 deltaT = 1e-08 s
 Time = 3.52e-06 s
 Simulation completed = 4.4%

Time Step =353
 deltaT = 1e-08 s
 Time = 3.53e-06 s
Updating material motion ...
 Simulation completed = 4.4125%

Time Step =354
 deltaT = 1e-08 s
 Time = 3.54e-06 s
 Simulation completed = 4.425%

Time Step =355
 deltaT = 1e-08 s
 Time = 3.55e-06 s
Updating material motion ...
 Simulation completed = 4.4375%

Time Step =356
 deltaT = 1e-08 s
 Time = 3.56e-06 s
 Simulation completed = 4.45%

Time Step =357
 deltaT = 1e-08 s
 Time = 3.57e-06 s
Updating material motion ...
 Simulation completed = 4.4625%

Time Step =358
 deltaT = 1e-08 s
 Time = 3.58e-06 s
 Simulation completed = 4.475%

Time Step =359
 deltaT = 1e-08 s
 Time = 3.59e-06 s
Updating material motion ...
 Simulation completed = 4.4875%

Time Step =360
 deltaT = 1e-08 s
 Time = 3.6e-06 s
 Simulation completed = 4.5%

Time Step =361
 deltaT = 1e-08 s
 Time = 3.61e-06 s
Updating material motion ...
 Simulation completed = 4.5125%

Time Step =362
 deltaT = 1e-08 s
 Time = 3.62e-06 s
 Simulation completed = 4.525%

Time Step =363
 deltaT = 1e-08 s
 Time = 3.63e-06 s
Updating material motion ...
 Simulation completed = 4.5375%

Time Step =364
 deltaT = 1e-08 s
 Time = 3.64e-06 s
 Simulation completed = 4.55%

Time Step =365
 deltaT = 1e-08 s
 Time = 3.65e-06 s
Updating material motion ...
 Simulation completed = 4.5625%

Time Step =366
 deltaT = 1e-08 s
 Time = 3.66e-06 s
 Simulation completed = 4.575%

Time Step =367
 deltaT = 1e-08 s
 Time = 3.67e-06 s
Updating material motion ...
 Simulation completed = 4.5875%

Time Step =368
 deltaT = 1e-08 s
 Time = 3.68e-06 s
 Simulation completed = 4.6%

Time Step =369
 deltaT = 1e-08 s
 Time = 3.69e-06 s
Updating material motion ...
 Simulation completed = 4.6125%

Time Step =370
 deltaT = 1e-08 s
 Time = 3.7e-06 s
 Simulation completed = 4.625%

Time Step =371
 deltaT = 1e-08 s
 Time = 3.71e-06 s
Updating material motion ...
 Simulation completed = 4.6375%

Time Step =372
 deltaT = 1e-08 s
 Time = 3.72e-06 s
 Simulation completed = 4.65%

Time Step =373
 deltaT = 1e-08 s
 Time = 3.73e-06 s
Updating material motion ...
 Simulation completed = 4.6625%

Time Step =374
 deltaT = 1e-08 s
 Time = 3.74e-06 s
 Simulation completed = 4.675%

Time Step =375
 deltaT = 1e-08 s
 Time = 3.75e-06 s
Updating material motion ...
 Simulation completed = 4.6875%

Time Step =376
 deltaT = 1e-08 s
 Time = 3.76e-06 s
 Simulation completed = 4.7%

Time Step =377
 deltaT = 1e-08 s
 Time = 3.77e-06 s
Updating material motion ...
 Simulation completed = 4.7125%

Time Step =378
 deltaT = 1e-08 s
 Time = 3.78e-06 s
 Simulation completed = 4.725%

Time Step =379
 deltaT = 1e-08 s
 Time = 3.79e-06 s
Updating material motion ...
 Simulation completed = 4.7375%

Time Step =380
 deltaT = 1e-08 s
 Time = 3.8e-06 s
 Simulation completed = 4.75%

Time Step =381
 deltaT = 1e-08 s
 Time = 3.81e-06 s
Updating material motion ...
 Simulation completed = 4.7625%

Time Step =382
 deltaT = 1e-08 s
 Time = 3.82e-06 s
 Simulation completed = 4.775%

Time Step =383
 deltaT = 1e-08 s
 Time = 3.83e-06 s
Updating material motion ...
 Simulation completed = 4.7875%

Time Step =384
 deltaT = 1e-08 s
 Time = 3.84e-06 s
 Simulation completed = 4.8%

Time Step =385
 deltaT = 1e-08 s
 Time = 3.85e-06 s
Updating material motion ...
 Simulation completed = 4.8125%

Time Step =386
 deltaT = 1e-08 s
 Time = 3.86e-06 s
 Simulation completed = 4.825%

Time Step =387
 deltaT = 1e-08 s
 Time = 3.87e-06 s
Updating material motion ...
 Simulation completed = 4.8375%

Time Step =388
 deltaT = 1e-08 s
 Time = 3.88e-06 s
 Simulation completed = 4.85%

Time Step =389
 deltaT = 1e-08 s
 Time = 3.89e-06 s
Updating material motion ...
 Simulation completed = 4.8625%

Time Step =390
 deltaT = 1e-08 s
 Time = 3.9e-06 s
 Simulation completed = 4.875%

Time Step =391
 deltaT = 1e-08 s
 Time = 3.91e-06 s
Updating material motion ...
 Simulation completed = 4.8875%

Time Step =392
 deltaT = 1e-08 s
 Time = 3.92e-06 s
 Simulation completed = 4.9%

Time Step =393
 deltaT = 1e-08 s
 Time = 3.93e-06 s
Updating material motion ...
 Simulation completed = 4.9125%

Time Step =394
 deltaT = 1e-08 s
 Time = 3.94e-06 s
 Simulation completed = 4.925%

Time Step =395
 deltaT = 1e-08 s
 Time = 3.95e-06 s
Updating material motion ...
 Simulation completed = 4.9375%

Time Step =396
 deltaT = 1e-08 s
 Time = 3.96e-06 s
 Simulation completed = 4.95%

Time Step =397
 deltaT = 1e-08 s
 Time = 3.97e-06 s
Updating material motion ...
 Simulation completed = 4.9625%

Time Step =398
 deltaT = 1e-08 s
 Time = 3.98e-06 s
 Simulation completed = 4.975%

Time Step =399
 deltaT = 1e-08 s
 Time = 3.99e-06 s
Updating material motion ...
 Simulation completed = 4.9875%

Time Step =400
 deltaT = 1e-08 s
 Time = 4e-06 s
Post Processing ...
 Simulation completed = 5%

Time Step =401
 deltaT = 1e-08 s
 Time = 4.01e-06 s
Updating material motion ...
 Simulation completed = 5.0125%

Time Step =402
 deltaT = 1e-08 s
 Time = 4.02e-06 s
 Simulation completed = 5.025%

Time Step =403
 deltaT = 1e-08 s
 Time = 4.03e-06 s
Updating material motion ...
 Simulation completed = 5.0375%

Time Step =404
 deltaT = 1e-08 s
 Time = 4.04e-06 s
 Simulation completed = 5.05%

Time Step =405
 deltaT = 1e-08 s
 Time = 4.05e-06 s
Updating material motion ...
 Simulation completed = 5.0625%

Time Step =406
 deltaT = 1e-08 s
 Time = 4.06e-06 s
 Simulation completed = 5.075%

Time Step =407
 deltaT = 1e-08 s
 Time = 4.07e-06 s
Updating material motion ...
 Simulation completed = 5.0875%

Time Step =408
 deltaT = 1e-08 s
 Time = 4.08e-06 s
 Simulation completed = 5.1%

Time Step =409
 deltaT = 1e-08 s
 Time = 4.09e-06 s
Updating material motion ...
 Simulation completed = 5.1125%

Time Step =410
 deltaT = 1e-08 s
 Time = 4.1e-06 s
 Simulation completed = 5.125%

Time Step =411
 deltaT = 1e-08 s
 Time = 4.11e-06 s
Updating material motion ...
 Simulation completed = 5.1375%

Time Step =412
 deltaT = 1e-08 s
 Time = 4.12e-06 s
 Simulation completed = 5.15%

Time Step =413
 deltaT = 1e-08 s
 Time = 4.13e-06 s
Updating material motion ...
 Simulation completed = 5.1625%

Time Step =414
 deltaT = 1e-08 s
 Time = 4.14e-06 s
 Simulation completed = 5.175%

Time Step =415
 deltaT = 1e-08 s
 Time = 4.15e-06 s
Updating material motion ...
 Simulation completed = 5.1875%

Time Step =416
 deltaT = 1e-08 s
 Time = 4.16e-06 s
 Simulation completed = 5.2%

Time Step =417
 deltaT = 1e-08 s
 Time = 4.17e-06 s
Updating material motion ...
 Simulation completed = 5.2125%

Time Step =418
 deltaT = 1e-08 s
 Time = 4.18e-06 s
 Simulation completed = 5.225%

Time Step =419
 deltaT = 1e-08 s
 Time = 4.19e-06 s
Updating material motion ...
 Simulation completed = 5.2375%

Time Step =420
 deltaT = 1e-08 s
 Time = 4.2e-06 s
 Simulation completed = 5.25%

Time Step =421
 deltaT = 1e-08 s
 Time = 4.21e-06 s
Updating material motion ...
 Simulation completed = 5.2625%

Time Step =422
 deltaT = 1e-08 s
 Time = 4.22e-06 s
 Simulation completed = 5.275%

Time Step =423
 deltaT = 1e-08 s
 Time = 4.23e-06 s
Updating material motion ...
 Simulation completed = 5.2875%

Time Step =424
 deltaT = 1e-08 s
 Time = 4.24e-06 s
 Simulation completed = 5.3%

Time Step =425
 deltaT = 1e-08 s
 Time = 4.25e-06 s
Updating material motion ...
 Simulation completed = 5.3125%

Time Step =426
 deltaT = 1e-08 s
 Time = 4.26e-06 s
 Simulation completed = 5.325%

Time Step =427
 deltaT = 1e-08 s
 Time = 4.27e-06 s
Updating material motion ...
 Simulation completed = 5.3375%

Time Step =428
 deltaT = 1e-08 s
 Time = 4.28e-06 s
 Simulation completed = 5.35%

Time Step =429
 deltaT = 1e-08 s
 Time = 4.29e-06 s
Updating material motion ...
 Simulation completed = 5.3625%

Time Step =430
 deltaT = 1e-08 s
 Time = 4.3e-06 s
 Simulation completed = 5.375%

Time Step =431
 deltaT = 1e-08 s
 Time = 4.31e-06 s
Updating material motion ...
 Simulation completed = 5.3875%

Time Step =432
 deltaT = 1e-08 s
 Time = 4.32e-06 s
 Simulation completed = 5.4%

Time Step =433
 deltaT = 1e-08 s
 Time = 4.33e-06 s
Updating material motion ...
 Simulation completed = 5.4125%

Time Step =434
 deltaT = 1e-08 s
 Time = 4.34e-06 s
 Simulation completed = 5.425%

Time Step =435
 deltaT = 1e-08 s
 Time = 4.35e-06 s
Updating material motion ...
 Simulation completed = 5.4375%

Time Step =436
 deltaT = 1e-08 s
 Time = 4.36e-06 s
 Simulation completed = 5.45%

Time Step =437
 deltaT = 1e-08 s
 Time = 4.37e-06 s
Updating material motion ...
 Simulation completed = 5.4625%

Time Step =438
 deltaT = 1e-08 s
 Time = 4.38e-06 s
 Simulation completed = 5.475%

Time Step =439
 deltaT = 1e-08 s
 Time = 4.39e-06 s
Updating material motion ...
 Simulation completed = 5.4875%

Time Step =440
 deltaT = 1e-08 s
 Time = 4.4e-06 s
 Simulation completed = 5.5%

Time Step =441
 deltaT = 1e-08 s
 Time = 4.41e-06 s
Updating material motion ...
 Simulation completed = 5.5125%

Time Step =442
 deltaT = 1e-08 s
 Time = 4.42e-06 s
 Simulation completed = 5.525%

Time Step =443
 deltaT = 1e-08 s
 Time = 4.43e-06 s
Updating material motion ...
 Simulation completed = 5.5375%

Time Step =444
 deltaT = 1e-08 s
 Time = 4.44e-06 s
 Simulation completed = 5.55%

Time Step =445
 deltaT = 1e-08 s
 Time = 4.45e-06 s
Updating material motion ...
 Simulation completed = 5.5625%

Time Step =446
 deltaT = 1e-08 s
 Time = 4.46e-06 s
 Simulation completed = 5.575%

Time Step =447
 deltaT = 1e-08 s
 Time = 4.47e-06 s
Updating material motion ...
 Simulation completed = 5.5875%

Time Step =448
 deltaT = 1e-08 s
 Time = 4.48e-06 s
 Simulation completed = 5.6%

Time Step =449
 deltaT = 1e-08 s
 Time = 4.49e-06 s
Updating material motion ...
 Simulation completed = 5.6125%

Time Step =450
 deltaT = 1e-08 s
 Time = 4.5e-06 s
 Simulation completed = 5.625%

Time Step =451
 deltaT = 1e-08 s
 Time = 4.51e-06 s
Updating material motion ...
 Simulation completed = 5.6375%

Time Step =452
 deltaT = 1e-08 s
 Time = 4.52e-06 s
 Simulation completed = 5.65%

Time Step =453
 deltaT = 1e-08 s
 Time = 4.53e-06 s
Updating material motion ...
 Simulation completed = 5.6625%

Time Step =454
 deltaT = 1e-08 s
 Time = 4.54e-06 s
 Simulation completed = 5.675%

Time Step =455
 deltaT = 1e-08 s
 Time = 4.55e-06 s
Updating material motion ...
 Simulation completed = 5.6875%

Time Step =456
 deltaT = 1e-08 s
 Time = 4.56e-06 s
 Simulation completed = 5.7%

Time Step =457
 deltaT = 1e-08 s
 Time = 4.57e-06 s
Updating material motion ...
 Simulation completed = 5.7125%

Time Step =458
 deltaT = 1e-08 s
 Time = 4.58e-06 s
 Simulation completed = 5.725%

Time Step =459
 deltaT = 1e-08 s
 Time = 4.59e-06 s
Updating material motion ...
 Simulation completed = 5.7375%

Time Step =460
 deltaT = 1e-08 s
 Time = 4.6e-06 s
 Simulation completed = 5.75%

Time Step =461
 deltaT = 1e-08 s
 Time = 4.61e-06 s
Updating material motion ...
 Simulation completed = 5.7625%

Time Step =462
 deltaT = 1e-08 s
 Time = 4.62e-06 s
 Simulation completed = 5.775%

Time Step =463
 deltaT = 1e-08 s
 Time = 4.63e-06 s
Updating material motion ...
 Simulation completed = 5.7875%

Time Step =464
 deltaT = 1e-08 s
 Time = 4.64e-06 s
 Simulation completed = 5.8%

Time Step =465
 deltaT = 1e-08 s
 Time = 4.65e-06 s
Updating material motion ...
 Simulation completed = 5.8125%

Time Step =466
 deltaT = 1e-08 s
 Time = 4.66e-06 s
 Simulation completed = 5.825%

Time Step =467
 deltaT = 1e-08 s
 Time = 4.67e-06 s
Updating material motion ...
 Simulation completed = 5.8375%

Time Step =468
 deltaT = 1e-08 s
 Time = 4.68e-06 s
 Simulation completed = 5.85%

Time Step =469
 deltaT = 1e-08 s
 Time = 4.69e-06 s
Updating material motion ...
 Simulation completed = 5.8625%

Time Step =470
 deltaT = 1e-08 s
 Time = 4.7e-06 s
 Simulation completed = 5.875%

Time Step =471
 deltaT = 1e-08 s
 Time = 4.71e-06 s
Updating material motion ...
 Simulation completed = 5.8875%

Time Step =472
 deltaT = 1e-08 s
 Time = 4.72e-06 s
 Simulation completed = 5.9%

Time Step =473
 deltaT = 1e-08 s
 Time = 4.73e-06 s
Updating material motion ...
 Simulation completed = 5.9125%

Time Step =474
 deltaT = 1e-08 s
 Time = 4.74e-06 s
 Simulation completed = 5.925%

Time Step =475
 deltaT = 1e-08 s
 Time = 4.75e-06 s
Updating material motion ...
 Simulation completed = 5.9375%

Time Step =476
 deltaT = 1e-08 s
 Time = 4.76e-06 s
 Simulation completed = 5.95%

Time Step =477
 deltaT = 1e-08 s
 Time = 4.77e-06 s
Updating material motion ...
 Simulation completed = 5.9625%

Time Step =478
 deltaT = 1e-08 s
 Time = 4.78e-06 s
 Simulation completed = 5.975%

Time Step =479
 deltaT = 1e-08 s
 Time = 4.79e-06 s
Updating material motion ...
 Simulation completed = 5.9875%

Time Step =480
 deltaT = 1e-08 s
 Time = 4.8e-06 s
 Simulation completed = 6%

Time Step =481
 deltaT = 1e-08 s
 Time = 4.81e-06 s
Updating material motion ...
 Simulation completed = 6.0125%

Time Step =482
 deltaT = 1e-08 s
 Time = 4.82e-06 s
 Simulation completed = 6.025%

Time Step =483
 deltaT = 1e-08 s
 Time = 4.83e-06 s
Updating material motion ...
 Simulation completed = 6.0375%

Time Step =484
 deltaT = 1e-08 s
 Time = 4.84e-06 s
 Simulation completed = 6.05%

Time Step =485
 deltaT = 1e-08 s
 Time = 4.85e-06 s
Updating material motion ...
 Simulation completed = 6.0625%

Time Step =486
 deltaT = 1e-08 s
 Time = 4.86e-06 s
 Simulation completed = 6.075%

Time Step =487
 deltaT = 1e-08 s
 Time = 4.87e-06 s
Updating material motion ...
 Simulation completed = 6.0875%

Time Step =488
 deltaT = 1e-08 s
 Time = 4.88e-06 s
 Simulation completed = 6.1%

Time Step =489
 deltaT = 1e-08 s
 Time = 4.89e-06 s
Updating material motion ...
 Simulation completed = 6.1125%

Time Step =490
 deltaT = 1e-08 s
 Time = 4.9e-06 s
 Simulation completed = 6.125%

Time Step =491
 deltaT = 1e-08 s
 Time = 4.91e-06 s
Updating material motion ...
 Simulation completed = 6.1375%

Time Step =492
 deltaT = 1e-08 s
 Time = 4.92e-06 s
 Simulation completed = 6.15%

Time Step =493
 deltaT = 1e-08 s
 Time = 4.93e-06 s
Updating material motion ...
 Simulation completed = 6.1625%

Time Step =494
 deltaT = 1e-08 s
 Time = 4.94e-06 s
 Simulation completed = 6.175%

Time Step =495
 deltaT = 1e-08 s
 Time = 4.95e-06 s
Updating material motion ...
 Simulation completed = 6.1875%

Time Step =496
 deltaT = 1e-08 s
 Time = 4.96e-06 s
 Simulation completed = 6.2%

Time Step =497
 deltaT = 1e-08 s
 Time = 4.97e-06 s
Updating material motion ...
 Simulation completed = 6.2125%

Time Step =498
 deltaT = 1e-08 s
 Time = 4.98e-06 s
 Simulation completed = 6.225%

Time Step =499
 deltaT = 1e-08 s
 Time = 4.99e-06 s
Updating material motion ...
 Simulation completed = 6.2375%

Time Step =500
 deltaT = 1e-08 s
 Time = 5e-06 s
Post Processing ...
 Simulation completed = 6.25%

Time Step =501
 deltaT = 1e-08 s
 Time = 5.01e-06 s
Updating material motion ...
 Simulation completed = 6.2625%

Time Step =502
 deltaT = 1e-08 s
 Time = 5.02e-06 s
 Simulation completed = 6.275%

Time Step =503
 deltaT = 1e-08 s
 Time = 5.03e-06 s
Updating material motion ...
 Simulation completed = 6.2875%

Time Step =504
 deltaT = 1e-08 s
 Time = 5.04e-06 s
 Simulation completed = 6.3%

Time Step =505
 deltaT = 1e-08 s
 Time = 5.05e-06 s
Updating material motion ...
 Simulation completed = 6.3125%

Time Step =506
 deltaT = 1e-08 s
 Time = 5.06e-06 s
 Simulation completed = 6.325%

Time Step =507
 deltaT = 1e-08 s
 Time = 5.07e-06 s
Updating material motion ...
 Simulation completed = 6.3375%

Time Step =508
 deltaT = 1e-08 s
 Time = 5.08e-06 s
 Simulation completed = 6.35%

Time Step =509
 deltaT = 1e-08 s
 Time = 5.09e-06 s
Updating material motion ...
 Simulation completed = 6.3625%

Time Step =510
 deltaT = 1e-08 s
 Time = 5.1e-06 s
 Simulation completed = 6.375%

Time Step =511
 deltaT = 1e-08 s
 Time = 5.11e-06 s
Updating material motion ...
 Simulation completed = 6.3875%

Time Step =512
 deltaT = 1e-08 s
 Time = 5.12e-06 s
 Simulation completed = 6.4%

Time Step =513
 deltaT = 1e-08 s
 Time = 5.13e-06 s
Updating material motion ...
 Simulation completed = 6.4125%

Time Step =514
 deltaT = 1e-08 s
 Time = 5.14e-06 s
 Simulation completed = 6.425%

Time Step =515
 deltaT = 1e-08 s
 Time = 5.15e-06 s
Updating material motion ...
 Simulation completed = 6.4375%

Time Step =516
 deltaT = 1e-08 s
 Time = 5.16e-06 s
 Simulation completed = 6.45%

Time Step =517
 deltaT = 1e-08 s
 Time = 5.17e-06 s
Updating material motion ...
 Simulation completed = 6.4625%

Time Step =518
 deltaT = 1e-08 s
 Time = 5.18e-06 s
 Simulation completed = 6.475%

Time Step =519
 deltaT = 1e-08 s
 Time = 5.19e-06 s
Updating material motion ...
 Simulation completed = 6.4875%

Time Step =520
 deltaT = 1e-08 s
 Time = 5.2e-06 s
 Simulation completed = 6.5%

Time Step =521
 deltaT = 1e-08 s
 Time = 5.21e-06 s
Updating material motion ...
 Simulation completed = 6.5125%

Time Step =522
 deltaT = 1e-08 s
 Time = 5.22e-06 s
 Simulation completed = 6.525%

Time Step =523
 deltaT = 1e-08 s
 Time = 5.23e-06 s
Updating material motion ...
 Simulation completed = 6.5375%

Time Step =524
 deltaT = 1e-08 s
 Time = 5.24e-06 s
 Simulation completed = 6.55%

Time Step =525
 deltaT = 1e-08 s
 Time = 5.25e-06 s
Updating material motion ...
 Simulation completed = 6.5625%

Time Step =526
 deltaT = 1e-08 s
 Time = 5.26e-06 s
 Simulation completed = 6.575%

Time Step =527
 deltaT = 1e-08 s
 Time = 5.27e-06 s
Updating material motion ...
 Simulation completed = 6.5875%

Time Step =528
 deltaT = 1e-08 s
 Time = 5.28e-06 s
 Simulation completed = 6.6%

Time Step =529
 deltaT = 1e-08 s
 Time = 5.29e-06 s
Updating material motion ...
 Simulation completed = 6.6125%

Time Step =530
 deltaT = 1e-08 s
 Time = 5.3e-06 s
 Simulation completed = 6.625%

Time Step =531
 deltaT = 1e-08 s
 Time = 5.31e-06 s
Updating material motion ...
 Simulation completed = 6.6375%

Time Step =532
 deltaT = 1e-08 s
 Time = 5.32e-06 s
 Simulation completed = 6.65%

Time Step =533
 deltaT = 1e-08 s
 Time = 5.33e-06 s
Updating material motion ...
 Simulation completed = 6.6625%

Time Step =534
 deltaT = 1e-08 s
 Time = 5.34e-06 s
 Simulation completed = 6.675%

Time Step =535
 deltaT = 1e-08 s
 Time = 5.35e-06 s
Updating material motion ...
 Simulation completed = 6.6875%

Time Step =536
 deltaT = 1e-08 s
 Time = 5.36e-06 s
 Simulation completed = 6.7%

Time Step =537
 deltaT = 1e-08 s
 Time = 5.37e-06 s
Updating material motion ...
 Simulation completed = 6.7125%

Time Step =538
 deltaT = 1e-08 s
 Time = 5.38e-06 s
 Simulation completed = 6.725%

Time Step =539
 deltaT = 1e-08 s
 Time = 5.39e-06 s
Updating material motion ...
 Simulation completed = 6.7375%

Time Step =540
 deltaT = 1e-08 s
 Time = 5.4e-06 s
 Simulation completed = 6.75%

Time Step =541
 deltaT = 1e-08 s
 Time = 5.41e-06 s
Updating material motion ...
 Simulation completed = 6.7625%

Time Step =542
 deltaT = 1e-08 s
 Time = 5.42e-06 s
 Simulation completed = 6.775%

Time Step =543
 deltaT = 1e-08 s
 Time = 5.43e-06 s
Updating material motion ...
 Simulation completed = 6.7875%

Time Step =544
 deltaT = 1e-08 s
 Time = 5.44e-06 s
 Simulation completed = 6.8%

Time Step =545
 deltaT = 1e-08 s
 Time = 5.45e-06 s
Updating material motion ...
 Simulation completed = 6.8125%

Time Step =546
 deltaT = 1e-08 s
 Time = 5.46e-06 s
 Simulation completed = 6.825%

Time Step =547
 deltaT = 1e-08 s
 Time = 5.47e-06 s
Updating material motion ...
 Simulation completed = 6.8375%

Time Step =548
 deltaT = 1e-08 s
 Time = 5.48e-06 s
 Simulation completed = 6.85%

Time Step =549
 deltaT = 1e-08 s
 Time = 5.49e-06 s
Updating material motion ...
 Simulation completed = 6.8625%

Time Step =550
 deltaT = 1e-08 s
 Time = 5.5e-06 s
 Simulation completed = 6.875%

Time Step =551
 deltaT = 1e-08 s
 Time = 5.51e-06 s
Updating material motion ...
 Simulation completed = 6.8875%

Time Step =552
 deltaT = 1e-08 s
 Time = 5.52e-06 s
 Simulation completed = 6.9%

Time Step =553
 deltaT = 1e-08 s
 Time = 5.53e-06 s
Updating material motion ...
 Simulation completed = 6.9125%

Time Step =554
 deltaT = 1e-08 s
 Time = 5.54e-06 s
 Simulation completed = 6.925%

Time Step =555
 deltaT = 1e-08 s
 Time = 5.55e-06 s
Updating material motion ...
 Simulation completed = 6.9375%

Time Step =556
 deltaT = 1e-08 s
 Time = 5.56e-06 s
 Simulation completed = 6.95%

Time Step =557
 deltaT = 1e-08 s
 Time = 5.57e-06 s
Updating material motion ...
 Simulation completed = 6.9625%

Time Step =558
 deltaT = 1e-08 s
 Time = 5.58e-06 s
 Simulation completed = 6.975%

Time Step =559
 deltaT = 1e-08 s
 Time = 5.59e-06 s
Updating material motion ...
 Simulation completed = 6.9875%

Time Step =560
 deltaT = 1e-08 s
 Time = 5.6e-06 s
 Simulation completed = 7%

Time Step =561
 deltaT = 1e-08 s
 Time = 5.61e-06 s
Updating material motion ...
 Simulation completed = 7.0125%

Time Step =562
 deltaT = 1e-08 s
 Time = 5.62e-06 s
 Simulation completed = 7.025%

Time Step =563
 deltaT = 1e-08 s
 Time = 5.63e-06 s
Updating material motion ...
 Simulation completed = 7.0375%

Time Step =564
 deltaT = 1e-08 s
 Time = 5.64e-06 s
 Simulation completed = 7.05%

Time Step =565
 deltaT = 1e-08 s
 Time = 5.65e-06 s
Updating material motion ...
 Simulation completed = 7.0625%

Time Step =566
 deltaT = 1e-08 s
 Time = 5.66e-06 s
 Simulation completed = 7.075%

Time Step =567
 deltaT = 1e-08 s
 Time = 5.67e-06 s
Updating material motion ...
 Simulation completed = 7.0875%

Time Step =568
 deltaT = 1e-08 s
 Time = 5.68e-06 s
 Simulation completed = 7.1%

Time Step =569
 deltaT = 1e-08 s
 Time = 5.69e-06 s
Updating material motion ...
 Simulation completed = 7.1125%

Time Step =570
 deltaT = 1e-08 s
 Time = 5.7e-06 s
 Simulation completed = 7.125%

Time Step =571
 deltaT = 1e-08 s
 Time = 5.71e-06 s
Updating material motion ...
 Simulation completed = 7.1375%

Time Step =572
 deltaT = 1e-08 s
 Time = 5.72e-06 s
 Simulation completed = 7.15%

Time Step =573
 deltaT = 1e-08 s
 Time = 5.73e-06 s
Updating material motion ...
 Simulation completed = 7.1625%

Time Step =574
 deltaT = 1e-08 s
 Time = 5.74e-06 s
 Simulation completed = 7.175%

Time Step =575
 deltaT = 1e-08 s
 Time = 5.75e-06 s
Updating material motion ...
 Simulation completed = 7.1875%

Time Step =576
 deltaT = 1e-08 s
 Time = 5.76e-06 s
 Simulation completed = 7.2%

Time Step =577
 deltaT = 1e-08 s
 Time = 5.77e-06 s
Updating material motion ...
 Simulation completed = 7.2125%

Time Step =578
 deltaT = 1e-08 s
 Time = 5.78e-06 s
 Simulation completed = 7.225%

Time Step =579
 deltaT = 1e-08 s
 Time = 5.79e-06 s
Updating material motion ...
 Simulation completed = 7.2375%

Time Step =580
 deltaT = 1e-08 s
 Time = 5.8e-06 s
 Simulation completed = 7.25%

Time Step =581
 deltaT = 1e-08 s
 Time = 5.81e-06 s
Updating material motion ...
 Simulation completed = 7.2625%

Time Step =582
 deltaT = 1e-08 s
 Time = 5.82e-06 s
 Simulation completed = 7.275%

Time Step =583
 deltaT = 1e-08 s
 Time = 5.83e-06 s
Updating material motion ...
 Simulation completed = 7.2875%

Time Step =584
 deltaT = 1e-08 s
 Time = 5.84e-06 s
 Simulation completed = 7.3%

Time Step =585
 deltaT = 1e-08 s
 Time = 5.85e-06 s
Updating material motion ...
 Simulation completed = 7.3125%

Time Step =586
 deltaT = 1e-08 s
 Time = 5.86e-06 s
 Simulation completed = 7.325%

Time Step =587
 deltaT = 1e-08 s
 Time = 5.87e-06 s
Updating material motion ...
 Simulation completed = 7.3375%

Time Step =588
 deltaT = 1e-08 s
 Time = 5.88e-06 s
 Simulation completed = 7.35%

Time Step =589
 deltaT = 1e-08 s
 Time = 5.89e-06 s
Updating material motion ...
 Simulation completed = 7.3625%

Time Step =590
 deltaT = 1e-08 s
 Time = 5.9e-06 s
 Simulation completed = 7.375%

Time Step =591
 deltaT = 1e-08 s
 Time = 5.91e-06 s
Updating material motion ...
 Simulation completed = 7.3875%

Time Step =592
 deltaT = 1e-08 s
 Time = 5.92e-06 s
 Simulation completed = 7.4%

Time Step =593
 deltaT = 1e-08 s
 Time = 5.93e-06 s
Updating material motion ...
 Simulation completed = 7.4125%

Time Step =594
 deltaT = 1e-08 s
 Time = 5.94e-06 s
 Simulation completed = 7.425%

Time Step =595
 deltaT = 1e-08 s
 Time = 5.95e-06 s
Updating material motion ...
 Simulation completed = 7.4375%

Time Step =596
 deltaT = 1e-08 s
 Time = 5.96e-06 s
 Simulation completed = 7.45%

Time Step =597
 deltaT = 1e-08 s
 Time = 5.97e-06 s
Updating material motion ...
 Simulation completed = 7.4625%

Time Step =598
 deltaT = 1e-08 s
 Time = 5.98e-06 s
 Simulation completed = 7.475%

Time Step =599
 deltaT = 1e-08 s
 Time = 5.99e-06 s
Updating material motion ...
 Simulation completed = 7.4875%

Time Step =600
 deltaT = 1e-08 s
 Time = 6e-06 s
Post Processing ...
 Simulation completed = 7.5%

Time Step =601
 deltaT = 1e-08 s
 Time = 6.01e-06 s
Updating material motion ...
 Simulation completed = 7.5125%

Time Step =602
 deltaT = 1e-08 s
 Time = 6.02e-06 s
 Simulation completed = 7.525%

Time Step =603
 deltaT = 1e-08 s
 Time = 6.03e-06 s
Updating material motion ...
 Simulation completed = 7.5375%

Time Step =604
 deltaT = 1e-08 s
 Time = 6.04e-06 s
 Simulation completed = 7.55%

Time Step =605
 deltaT = 1e-08 s
 Time = 6.05e-06 s
Updating material motion ...
 Simulation completed = 7.5625%

Time Step =606
 deltaT = 1e-08 s
 Time = 6.06e-06 s
 Simulation completed = 7.575%

Time Step =607
 deltaT = 1e-08 s
 Time = 6.07e-06 s
Updating material motion ...
 Simulation completed = 7.5875%

Time Step =608
 deltaT = 1e-08 s
 Time = 6.08e-06 s
 Simulation completed = 7.6%

Time Step =609
 deltaT = 1e-08 s
 Time = 6.09e-06 s
Updating material motion ...
 Simulation completed = 7.6125%

Time Step =610
 deltaT = 1e-08 s
 Time = 6.1e-06 s
 Simulation completed = 7.625%

Time Step =611
 deltaT = 1e-08 s
 Time = 6.11e-06 s
Updating material motion ...
 Simulation completed = 7.6375%

Time Step =612
 deltaT = 1e-08 s
 Time = 6.12e-06 s
 Simulation completed = 7.65%

Time Step =613
 deltaT = 1e-08 s
 Time = 6.13e-06 s
Updating material motion ...
 Simulation completed = 7.6625%

Time Step =614
 deltaT = 1e-08 s
 Time = 6.14e-06 s
 Simulation completed = 7.675%

Time Step =615
 deltaT = 1e-08 s
 Time = 6.15e-06 s
Updating material motion ...
 Simulation completed = 7.6875%

Time Step =616
 deltaT = 1e-08 s
 Time = 6.16e-06 s
 Simulation completed = 7.7%

Time Step =617
 deltaT = 1e-08 s
 Time = 6.17e-06 s
Updating material motion ...
 Simulation completed = 7.7125%

Time Step =618
 deltaT = 1e-08 s
 Time = 6.18e-06 s
 Simulation completed = 7.725%

Time Step =619
 deltaT = 1e-08 s
 Time = 6.19e-06 s
Updating material motion ...
 Simulation completed = 7.7375%

Time Step =620
 deltaT = 1e-08 s
 Time = 6.2e-06 s
 Simulation completed = 7.75%

Time Step =621
 deltaT = 1e-08 s
 Time = 6.21e-06 s
Updating material motion ...
 Simulation completed = 7.7625%

Time Step =622
 deltaT = 1e-08 s
 Time = 6.22e-06 s
 Simulation completed = 7.775%

Time Step =623
 deltaT = 1e-08 s
 Time = 6.23e-06 s
Updating material motion ...
 Simulation completed = 7.7875%

Time Step =624
 deltaT = 1e-08 s
 Time = 6.24e-06 s
 Simulation completed = 7.8%

Time Step =625
 deltaT = 1e-08 s
 Time = 6.25e-06 s
Updating material motion ...
 Simulation completed = 7.8125%

Time Step =626
 deltaT = 1e-08 s
 Time = 6.26e-06 s
 Simulation completed = 7.825%

Time Step =627
 deltaT = 1e-08 s
 Time = 6.27e-06 s
Updating material motion ...
 Simulation completed = 7.8375%

Time Step =628
 deltaT = 1e-08 s
 Time = 6.28e-06 s
 Simulation completed = 7.85%

Time Step =629
 deltaT = 1e-08 s
 Time = 6.29e-06 s
Updating material motion ...
 Simulation completed = 7.8625%

Time Step =630
 deltaT = 1e-08 s
 Time = 6.3e-06 s
 Simulation completed = 7.875%

Time Step =631
 deltaT = 1e-08 s
 Time = 6.31e-06 s
Updating material motion ...
 Simulation completed = 7.8875%

Time Step =632
 deltaT = 1e-08 s
 Time = 6.32e-06 s
 Simulation completed = 7.9%

Time Step =633
 deltaT = 1e-08 s
 Time = 6.33e-06 s
Updating material motion ...
 Simulation completed = 7.9125%

Time Step =634
 deltaT = 1e-08 s
 Time = 6.34e-06 s
 Simulation completed = 7.925%

Time Step =635
 deltaT = 1e-08 s
 Time = 6.35e-06 s
Updating material motion ...
 Simulation completed = 7.9375%

Time Step =636
 deltaT = 1e-08 s
 Time = 6.36e-06 s
 Simulation completed = 7.95%

Time Step =637
 deltaT = 1e-08 s
 Time = 6.37e-06 s
Updating material motion ...
 Simulation completed = 7.9625%

Time Step =638
 deltaT = 1e-08 s
 Time = 6.38e-06 s
 Simulation completed = 7.975%

Time Step =639
 deltaT = 1e-08 s
 Time = 6.39e-06 s
Updating material motion ...
 Simulation completed = 7.9875%

Time Step =640
 deltaT = 1e-08 s
 Time = 6.4e-06 s
 Simulation completed = 8%

Time Step =641
 deltaT = 1e-08 s
 Time = 6.41e-06 s
Updating material motion ...
 Simulation completed = 8.0125%

Time Step =642
 deltaT = 1e-08 s
 Time = 6.42e-06 s
 Simulation completed = 8.025%

Time Step =643
 deltaT = 1e-08 s
 Time = 6.43e-06 s
Updating material motion ...
 Simulation completed = 8.0375%

Time Step =644
 deltaT = 1e-08 s
 Time = 6.44e-06 s
 Simulation completed = 8.05%

Time Step =645
 deltaT = 1e-08 s
 Time = 6.45e-06 s
Updating material motion ...
 Simulation completed = 8.0625%

Time Step =646
 deltaT = 1e-08 s
 Time = 6.46e-06 s
 Simulation completed = 8.075%

Time Step =647
 deltaT = 1e-08 s
 Time = 6.47e-06 s
Updating material motion ...
 Simulation completed = 8.0875%

Time Step =648
 deltaT = 1e-08 s
 Time = 6.48e-06 s
 Simulation completed = 8.1%

Time Step =649
 deltaT = 1e-08 s
 Time = 6.49e-06 s
Updating material motion ...
 Simulation completed = 8.1125%

Time Step =650
 deltaT = 1e-08 s
 Time = 6.5e-06 s
 Simulation completed = 8.125%

Time Step =651
 deltaT = 1e-08 s
 Time = 6.51e-06 s
Updating material motion ...
 Simulation completed = 8.1375%

Time Step =652
 deltaT = 1e-08 s
 Time = 6.52e-06 s
 Simulation completed = 8.15%

Time Step =653
 deltaT = 1e-08 s
 Time = 6.53e-06 s
Updating material motion ...
 Simulation completed = 8.1625%

Time Step =654
 deltaT = 1e-08 s
 Time = 6.54e-06 s
 Simulation completed = 8.175%

Time Step =655
 deltaT = 1e-08 s
 Time = 6.55e-06 s
Updating material motion ...
 Simulation completed = 8.1875%

Time Step =656
 deltaT = 1e-08 s
 Time = 6.56e-06 s
 Simulation completed = 8.2%

Time Step =657
 deltaT = 1e-08 s
 Time = 6.57e-06 s
Updating material motion ...
 Simulation completed = 8.2125%

Time Step =658
 deltaT = 1e-08 s
 Time = 6.58e-06 s
 Simulation completed = 8.225%

Time Step =659
 deltaT = 1e-08 s
 Time = 6.59e-06 s
Updating material motion ...
 Simulation completed = 8.2375%

Time Step =660
 deltaT = 1e-08 s
 Time = 6.6e-06 s
 Simulation completed = 8.25%

Time Step =661
 deltaT = 1e-08 s
 Time = 6.61e-06 s
Updating material motion ...
 Simulation completed = 8.2625%

Time Step =662
 deltaT = 1e-08 s
 Time = 6.62e-06 s
 Simulation completed = 8.275%

Time Step =663
 deltaT = 1e-08 s
 Time = 6.63e-06 s
Updating material motion ...
 Simulation completed = 8.2875%

Time Step =664
 deltaT = 1e-08 s
 Time = 6.64e-06 s
 Simulation completed = 8.3%

Time Step =665
 deltaT = 1e-08 s
 Time = 6.65e-06 s
Updating material motion ...
 Simulation completed = 8.3125%

Time Step =666
 deltaT = 1e-08 s
 Time = 6.66e-06 s
 Simulation completed = 8.325%

Time Step =667
 deltaT = 1e-08 s
 Time = 6.67e-06 s
Updating material motion ...
 Simulation completed = 8.3375%

Time Step =668
 deltaT = 1e-08 s
 Time = 6.68e-06 s
 Simulation completed = 8.35%

Time Step =669
 deltaT = 1e-08 s
 Time = 6.69e-06 s
Updating material motion ...
 Simulation completed = 8.3625%

Time Step =670
 deltaT = 1e-08 s
 Time = 6.7e-06 s
 Simulation completed = 8.375%

Time Step =671
 deltaT = 1e-08 s
 Time = 6.71e-06 s
Updating material motion ...
 Simulation completed = 8.3875%

Time Step =672
 deltaT = 1e-08 s
 Time = 6.72e-06 s
 Simulation completed = 8.4%

Time Step =673
 deltaT = 1e-08 s
 Time = 6.73e-06 s
Updating material motion ...
 Simulation completed = 8.4125%

Time Step =674
 deltaT = 1e-08 s
 Time = 6.74e-06 s
 Simulation completed = 8.425%

Time Step =675
 deltaT = 1e-08 s
 Time = 6.75e-06 s
Updating material motion ...
 Simulation completed = 8.4375%

Time Step =676
 deltaT = 1e-08 s
 Time = 6.76e-06 s
 Simulation completed = 8.45%

Time Step =677
 deltaT = 1e-08 s
 Time = 6.77e-06 s
Updating material motion ...
 Simulation completed = 8.4625%

Time Step =678
 deltaT = 1e-08 s
 Time = 6.78e-06 s
 Simulation completed = 8.475%

Time Step =679
 deltaT = 1e-08 s
 Time = 6.79e-06 s
Updating material motion ...
 Simulation completed = 8.4875%

Time Step =680
 deltaT = 1e-08 s
 Time = 6.8e-06 s
 Simulation completed = 8.5%

Time Step =681
 deltaT = 1e-08 s
 Time = 6.81e-06 s
Updating material motion ...
 Simulation completed = 8.5125%

Time Step =682
 deltaT = 1e-08 s
 Time = 6.82e-06 s
 Simulation completed = 8.525%

Time Step =683
 deltaT = 1e-08 s
 Time = 6.83e-06 s
Updating material motion ...
 Simulation completed = 8.5375%

Time Step =684
 deltaT = 1e-08 s
 Time = 6.84e-06 s
 Simulation completed = 8.55%

Time Step =685
 deltaT = 1e-08 s
 Time = 6.85e-06 s
Updating material motion ...
 Simulation completed = 8.5625%

Time Step =686
 deltaT = 1e-08 s
 Time = 6.86e-06 s
 Simulation completed = 8.575%

Time Step =687
 deltaT = 1e-08 s
 Time = 6.87e-06 s
Updating material motion ...
 Simulation completed = 8.5875%

Time Step =688
 deltaT = 1e-08 s
 Time = 6.88e-06 s
 Simulation completed = 8.6%

Time Step =689
 deltaT = 1e-08 s
 Time = 6.89e-06 s
Updating material motion ...
 Simulation completed = 8.6125%

Time Step =690
 deltaT = 1e-08 s
 Time = 6.9e-06 s
 Simulation completed = 8.625%

Time Step =691
 deltaT = 1e-08 s
 Time = 6.91e-06 s
Updating material motion ...
 Simulation completed = 8.6375%

Time Step =692
 deltaT = 1e-08 s
 Time = 6.92e-06 s
 Simulation completed = 8.65%

Time Step =693
 deltaT = 1e-08 s
 Time = 6.93e-06 s
Updating material motion ...
 Simulation completed = 8.6625%

Time Step =694
 deltaT = 1e-08 s
 Time = 6.94e-06 s
 Simulation completed = 8.675%

Time Step =695
 deltaT = 1e-08 s
 Time = 6.95e-06 s
Updating material motion ...
 Simulation completed = 8.6875%

Time Step =696
 deltaT = 1e-08 s
 Time = 6.96e-06 s
 Simulation completed = 8.7%

Time Step =697
 deltaT = 1e-08 s
 Time = 6.97e-06 s
Updating material motion ...
 Simulation completed = 8.7125%

Time Step =698
 deltaT = 1e-08 s
 Time = 6.98e-06 s
 Simulation completed = 8.725%

Time Step =699
 deltaT = 1e-08 s
 Time = 6.99e-06 s
Updating material motion ...
 Simulation completed = 8.7375%

Time Step =700
 deltaT = 1e-08 s
 Time = 7e-06 s
Post Processing ...
 Simulation completed = 8.75%

Time Step =701
 deltaT = 1e-08 s
 Time = 7.01e-06 s
Updating material motion ...
 Simulation completed = 8.7625%

Time Step =702
 deltaT = 1e-08 s
 Time = 7.02e-06 s
 Simulation completed = 8.775%

Time Step =703
 deltaT = 1e-08 s
 Time = 7.03e-06 s
Updating material motion ...
 Simulation completed = 8.7875%

Time Step =704
 deltaT = 1e-08 s
 Time = 7.04e-06 s
 Simulation completed = 8.8%

Time Step =705
 deltaT = 1e-08 s
 Time = 7.05e-06 s
Updating material motion ...
 Simulation completed = 8.8125%

Time Step =706
 deltaT = 1e-08 s
 Time = 7.06e-06 s
 Simulation completed = 8.825%

Time Step =707
 deltaT = 1e-08 s
 Time = 7.07e-06 s
Updating material motion ...
 Simulation completed = 8.8375%

Time Step =708
 deltaT = 1e-08 s
 Time = 7.08e-06 s
 Simulation completed = 8.85%

Time Step =709
 deltaT = 1e-08 s
 Time = 7.09e-06 s
Updating material motion ...
 Simulation completed = 8.8625%

Time Step =710
 deltaT = 1e-08 s
 Time = 7.1e-06 s
 Simulation completed = 8.875%

Time Step =711
 deltaT = 1e-08 s
 Time = 7.11e-06 s
Updating material motion ...
 Simulation completed = 8.8875%

Time Step =712
 deltaT = 1e-08 s
 Time = 7.12e-06 s
 Simulation completed = 8.9%

Time Step =713
 deltaT = 1e-08 s
 Time = 7.13e-06 s
Updating material motion ...
 Simulation completed = 8.9125%

Time Step =714
 deltaT = 1e-08 s
 Time = 7.14e-06 s
 Simulation completed = 8.925%

Time Step =715
 deltaT = 1e-08 s
 Time = 7.15e-06 s
Updating material motion ...
 Simulation completed = 8.9375%

Time Step =716
 deltaT = 1e-08 s
 Time = 7.16e-06 s
 Simulation completed = 8.95%

Time Step =717
 deltaT = 1e-08 s
 Time = 7.17e-06 s
Updating material motion ...
 Simulation completed = 8.9625%

Time Step =718
 deltaT = 1e-08 s
 Time = 7.18e-06 s
 Simulation completed = 8.975%

Time Step =719
 deltaT = 1e-08 s
 Time = 7.19e-06 s
Updating material motion ...
 Simulation completed = 8.9875%

Time Step =720
 deltaT = 1e-08 s
 Time = 7.2e-06 s
 Simulation completed = 9%

Time Step =721
 deltaT = 1e-08 s
 Time = 7.21e-06 s
Updating material motion ...
 Simulation completed = 9.0125%

Time Step =722
 deltaT = 1e-08 s
 Time = 7.22e-06 s
 Simulation completed = 9.025%

Time Step =723
 deltaT = 1e-08 s
 Time = 7.23e-06 s
Updating material motion ...
 Simulation completed = 9.0375%

Time Step =724
 deltaT = 1e-08 s
 Time = 7.24e-06 s
 Simulation completed = 9.05%

Time Step =725
 deltaT = 1e-08 s
 Time = 7.25e-06 s
Updating material motion ...
 Simulation completed = 9.0625%

Time Step =726
 deltaT = 1e-08 s
 Time = 7.26e-06 s
 Simulation completed = 9.075%

Time Step =727
 deltaT = 1e-08 s
 Time = 7.27e-06 s
Updating material motion ...
 Simulation completed = 9.0875%

Time Step =728
 deltaT = 1e-08 s
 Time = 7.28e-06 s
 Simulation completed = 9.1%

Time Step =729
 deltaT = 1e-08 s
 Time = 7.29e-06 s
Updating material motion ...
 Simulation completed = 9.1125%

Time Step =730
 deltaT = 1e-08 s
 Time = 7.3e-06 s
 Simulation completed = 9.125%

Time Step =731
 deltaT = 1e-08 s
 Time = 7.31e-06 s
Updating material motion ...
 Simulation completed = 9.1375%

Time Step =732
 deltaT = 1e-08 s
 Time = 7.32e-06 s
 Simulation completed = 9.15%

Time Step =733
 deltaT = 1e-08 s
 Time = 7.33e-06 s
Updating material motion ...
 Simulation completed = 9.1625%

Time Step =734
 deltaT = 1e-08 s
 Time = 7.34e-06 s
 Simulation completed = 9.175%

Time Step =735
 deltaT = 1e-08 s
 Time = 7.35e-06 s
Updating material motion ...
 Simulation completed = 9.1875%

Time Step =736
 deltaT = 1e-08 s
 Time = 7.36e-06 s
 Simulation completed = 9.2%

Time Step =737
 deltaT = 1e-08 s
 Time = 7.37e-06 s
Updating material motion ...
 Simulation completed = 9.2125%

Time Step =738
 deltaT = 1e-08 s
 Time = 7.38e-06 s
 Simulation completed = 9.225%

Time Step =739
 deltaT = 1e-08 s
 Time = 7.39e-06 s
Updating material motion ...
 Simulation completed = 9.2375%

Time Step =740
 deltaT = 1e-08 s
 Time = 7.4e-06 s
 Simulation completed = 9.25%

Time Step =741
 deltaT = 1e-08 s
 Time = 7.41e-06 s
Updating material motion ...
 Simulation completed = 9.2625%

Time Step =742
 deltaT = 1e-08 s
 Time = 7.42e-06 s
 Simulation completed = 9.275%

Time Step =743
 deltaT = 1e-08 s
 Time = 7.43e-06 s
Updating material motion ...
 Simulation completed = 9.2875%

Time Step =744
 deltaT = 1e-08 s
 Time = 7.44e-06 s
 Simulation completed = 9.3%

Time Step =745
 deltaT = 1e-08 s
 Time = 7.45e-06 s
Updating material motion ...
 Simulation completed = 9.3125%

Time Step =746
 deltaT = 1e-08 s
 Time = 7.46e-06 s
 Simulation completed = 9.325%

Time Step =747
 deltaT = 1e-08 s
 Time = 7.47e-06 s
Updating material motion ...
 Simulation completed = 9.3375%

Time Step =748
 deltaT = 1e-08 s
 Time = 7.48e-06 s
 Simulation completed = 9.35%

Time Step =749
 deltaT = 1e-08 s
 Time = 7.49e-06 s
Updating material motion ...
 Simulation completed = 9.3625%

Time Step =750
 deltaT = 1e-08 s
 Time = 7.5e-06 s
 Simulation completed = 9.375%

Time Step =751
 deltaT = 1e-08 s
 Time = 7.51e-06 s
Updating material motion ...
 Simulation completed = 9.3875%

Time Step =752
 deltaT = 1e-08 s
 Time = 7.52e-06 s
 Simulation completed = 9.4%

Time Step =753
 deltaT = 1e-08 s
 Time = 7.53e-06 s
Updating material motion ...
 Simulation completed = 9.4125%

Time Step =754
 deltaT = 1e-08 s
 Time = 7.54e-06 s
 Simulation completed = 9.425%

Time Step =755
 deltaT = 1e-08 s
 Time = 7.55e-06 s
Updating material motion ...
 Simulation completed = 9.4375%

Time Step =756
 deltaT = 1e-08 s
 Time = 7.56e-06 s
 Simulation completed = 9.45%

Time Step =757
 deltaT = 1e-08 s
 Time = 7.57e-06 s
Updating material motion ...
 Simulation completed = 9.4625%

Time Step =758
 deltaT = 1e-08 s
 Time = 7.58e-06 s
 Simulation completed = 9.475%

Time Step =759
 deltaT = 1e-08 s
 Time = 7.59e-06 s
Updating material motion ...
 Simulation completed = 9.4875%

Time Step =760
 deltaT = 1e-08 s
 Time = 7.6e-06 s
 Simulation completed = 9.5%

Time Step =761
 deltaT = 1e-08 s
 Time = 7.61e-06 s
Updating material motion ...
 Simulation completed = 9.5125%

Time Step =762
 deltaT = 1e-08 s
 Time = 7.62e-06 s
 Simulation completed = 9.525%

Time Step =763
 deltaT = 1e-08 s
 Time = 7.63e-06 s
Updating material motion ...
 Simulation completed = 9.5375%

Time Step =764
 deltaT = 1e-08 s
 Time = 7.64e-06 s
 Simulation completed = 9.55%

Time Step =765
 deltaT = 1e-08 s
 Time = 7.65e-06 s
Updating material motion ...
 Simulation completed = 9.5625%

Time Step =766
 deltaT = 1e-08 s
 Time = 7.66e-06 s
 Simulation completed = 9.575%

Time Step =767
 deltaT = 1e-08 s
 Time = 7.67e-06 s
Updating material motion ...
 Simulation completed = 9.5875%

Time Step =768
 deltaT = 1e-08 s
 Time = 7.68e-06 s
 Simulation completed = 9.6%

Time Step =769
 deltaT = 1e-08 s
 Time = 7.69e-06 s
Updating material motion ...
 Simulation completed = 9.6125%

Time Step =770
 deltaT = 1e-08 s
 Time = 7.7e-06 s
 Simulation completed = 9.625%

Time Step =771
 deltaT = 1e-08 s
 Time = 7.71e-06 s
Updating material motion ...
 Simulation completed = 9.6375%

Time Step =772
 deltaT = 1e-08 s
 Time = 7.72e-06 s
 Simulation completed = 9.65%

Time Step =773
 deltaT = 1e-08 s
 Time = 7.73e-06 s
Updating material motion ...
 Simulation completed = 9.6625%

Time Step =774
 deltaT = 1e-08 s
 Time = 7.74e-06 s
 Simulation completed = 9.675%

Time Step =775
 deltaT = 1e-08 s
 Time = 7.75e-06 s
Updating material motion ...
 Simulation completed = 9.6875%

Time Step =776
 deltaT = 1e-08 s
 Time = 7.76e-06 s
 Simulation completed = 9.7%

Time Step =777
 deltaT = 1e-08 s
 Time = 7.77e-06 s
Updating material motion ...
 Simulation completed = 9.7125%

Time Step =778
 deltaT = 1e-08 s
 Time = 7.78e-06 s
 Simulation completed = 9.725%

Time Step =779
 deltaT = 1e-08 s
 Time = 7.79e-06 s
Updating material motion ...
 Simulation completed = 9.7375%

Time Step =780
 deltaT = 1e-08 s
 Time = 7.8e-06 s
 Simulation completed = 9.75%

Time Step =781
 deltaT = 1e-08 s
 Time = 7.81e-06 s
Updating material motion ...
 Simulation completed = 9.7625%

Time Step =782
 deltaT = 1e-08 s
 Time = 7.82e-06 s
 Simulation completed = 9.775%

Time Step =783
 deltaT = 1e-08 s
 Time = 7.83e-06 s
Updating material motion ...
 Simulation completed = 9.7875%

Time Step =784
 deltaT = 1e-08 s
 Time = 7.84e-06 s
 Simulation completed = 9.8%

Time Step =785
 deltaT = 1e-08 s
 Time = 7.85e-06 s
Updating material motion ...
 Simulation completed = 9.8125%

Time Step =786
 deltaT = 1e-08 s
 Time = 7.86e-06 s
[...]

Time Step =7805
 deltaT = 1e-08 s
 Time = 7.805e-05 s
Updating material motion ...
 Simulation completed = 97.5625%

Time Step =7806
 deltaT = 1e-08 s
 Time = 7.806e-05 s
 Simulation completed = 97.575%

Time Step =7807
 deltaT = 1e-08 s
 Time = 7.807e-05 s
Updating material motion ...
 Simulation completed = 97.5875%

Time Step =7808
 deltaT = 1e-08 s
 Time = 7.808e-05 s
 Simulation completed = 97.6%

Time Step =7809
 deltaT = 1e-08 s
 Time = 7.809e-05 s
Updating material motion ...
 Simulation completed = 97.6125%

Time Step =7810
 deltaT = 1e-08 s
 Time = 7.81e-05 s
 Simulation completed = 97.625%

Time Step =7811
 deltaT = 1e-08 s
 Time = 7.811e-05 s
Updating material motion ...
 Simulation completed = 97.6375%

Time Step =7812
 deltaT = 1e-08 s
 Time = 7.812e-05 s
 Simulation completed = 97.65%

Time Step =7813
 deltaT = 1e-08 s
 Time = 7.813e-05 s
Updating material motion ...
 Simulation completed = 97.6625%

Time Step =7814
 deltaT = 1e-08 s
 Time = 7.814e-05 s
 Simulation completed = 97.675%

Time Step =7815
 deltaT = 1e-08 s
 Time = 7.815e-05 s
Updating material motion ...
 Simulation completed = 97.6875%

Time Step =7816
 deltaT = 1e-08 s
 Time = 7.816e-05 s
 Simulation completed = 97.7%

Time Step =7817
 deltaT = 1e-08 s
 Time = 7.817e-05 s
Updating material motion ...
 Simulation completed = 97.7125%

Time Step =7818
 deltaT = 1e-08 s
 Time = 7.818e-05 s
 Simulation completed = 97.725%

Time Step =7819
 deltaT = 1e-08 s
 Time = 7.819e-05 s
Updating material motion ...
 Simulation completed = 97.7375%

Time Step =7820
 deltaT = 1e-08 s
 Time = 7.82e-05 s
 Simulation completed = 97.75%

Time Step =7821
 deltaT = 1e-08 s
 Time = 7.821e-05 s
Updating material motion ...
 Simulation completed = 97.7625%

Time Step =7822
 deltaT = 1e-08 s
 Time = 7.822e-05 s
 Simulation completed = 97.775%

Time Step =7823
 deltaT = 1e-08 s
 Time = 7.823e-05 s
Updating material motion ...
 Simulation completed = 97.7875%

Time Step =7824
 deltaT = 1e-08 s
 Time = 7.824e-05 s
 Simulation completed = 97.8%

Time Step =7825
 deltaT = 1e-08 s
 Time = 7.825e-05 s
Updating material motion ...
 Simulation completed = 97.8125%

Time Step =7826
 deltaT = 1e-08 s
 Time = 7.826e-05 s
 Simulation completed = 97.825%

Time Step =7827
 deltaT = 1e-08 s
 Time = 7.827e-05 s
Updating material motion ...
 Simulation completed = 97.8375%

Time Step =7828
 deltaT = 1e-08 s
 Time = 7.828e-05 s
 Simulation completed = 97.85%

Time Step =7829
 deltaT = 1e-08 s
 Time = 7.829e-05 s
Updating material motion ...
 Simulation completed = 97.8625%

Time Step =7830
 deltaT = 1e-08 s
 Time = 7.83e-05 s
 Simulation completed = 97.875%

Time Step =7831
 deltaT = 1e-08 s
 Time = 7.831e-05 s
Updating material motion ...
 Simulation completed = 97.8875%

Time Step =7832
 deltaT = 1e-08 s
 Time = 7.832e-05 s
 Simulation completed = 97.9%

Time Step =7833
 deltaT = 1e-08 s
 Time = 7.833e-05 s
Updating material motion ...
 Simulation completed = 97.9125%

Time Step =7834
 deltaT = 1e-08 s
 Time = 7.834e-05 s
 Simulation completed = 97.925%

Time Step =7835
 deltaT = 1e-08 s
 Time = 7.835e-05 s
Updating material motion ...
 Simulation completed = 97.9375%

Time Step =7836
 deltaT = 1e-08 s
 Time = 7.836e-05 s
 Simulation completed = 97.95%

Time Step =7837
 deltaT = 1e-08 s
 Time = 7.837e-05 s
Updating material motion ...
 Simulation completed = 97.9625%

Time Step =7838
 deltaT = 1e-08 s
 Time = 7.838e-05 s
 Simulation completed = 97.975%

Time Step =7839
 deltaT = 1e-08 s
 Time = 7.839e-05 s
Updating material motion ...
 Simulation completed = 97.9875%

Time Step =7840
 deltaT = 1e-08 s
 Time = 7.84e-05 s
 Simulation completed = 98%

Time Step =7841
 deltaT = 1e-08 s
 Time = 7.841e-05 s
Updating material motion ...
 Simulation completed = 98.0125%

Time Step =7842
 deltaT = 1e-08 s
 Time = 7.842e-05 s
 Simulation completed = 98.025%

Time Step =7843
 deltaT = 1e-08 s
 Time = 7.843e-05 s
Updating material motion ...
 Simulation completed = 98.0375%

Time Step =7844
 deltaT = 1e-08 s
 Time = 7.844e-05 s
 Simulation completed = 98.05%

Time Step =7845
 deltaT = 1e-08 s
 Time = 7.845e-05 s
Updating material motion ...
 Simulation completed = 98.0625%

Time Step =7846
 deltaT = 1e-08 s
 Time = 7.846e-05 s
 Simulation completed = 98.075%

Time Step =7847
 deltaT = 1e-08 s
 Time = 7.847e-05 s
Updating material motion ...
 Simulation completed = 98.0875%

Time Step =7848
 deltaT = 1e-08 s
 Time = 7.848e-05 s
 Simulation completed = 98.1%

Time Step =7849
 deltaT = 1e-08 s
 Time = 7.849e-05 s
Updating material motion ...
 Simulation completed = 98.1125%

Time Step =7850
 deltaT = 1e-08 s
 Time = 7.85e-05 s
 Simulation completed = 98.125%

Time Step =7851
 deltaT = 1e-08 s
 Time = 7.851e-05 s
Updating material motion ...
 Simulation completed = 98.1375%

Time Step =7852
 deltaT = 1e-08 s
 Time = 7.852e-05 s
 Simulation completed = 98.15%

Time Step =7853
 deltaT = 1e-08 s
 Time = 7.853e-05 s
Updating material motion ...
 Simulation completed = 98.1625%

Time Step =7854
 deltaT = 1e-08 s
 Time = 7.854e-05 s
 Simulation completed = 98.175%

Time Step =7855
 deltaT = 1e-08 s
 Time = 7.855e-05 s
Updating material motion ...
 Simulation completed = 98.1875%

Time Step =7856
 deltaT = 1e-08 s
 Time = 7.856e-05 s
 Simulation completed = 98.2%

Time Step =7857
 deltaT = 1e-08 s
 Time = 7.857e-05 s
Updating material motion ...
 Simulation completed = 98.2125%

Time Step =7858
 deltaT = 1e-08 s
 Time = 7.858e-05 s
 Simulation completed = 98.225%

Time Step =7859
 deltaT = 1e-08 s
 Time = 7.859e-05 s
Updating material motion ...
 Simulation completed = 98.2375%

Time Step =7860
 deltaT = 1e-08 s
 Time = 7.86e-05 s
 Simulation completed = 98.25%

Time Step =7861
 deltaT = 1e-08 s
 Time = 7.861e-05 s
Updating material motion ...
 Simulation completed = 98.2625%

Time Step =7862
 deltaT = 1e-08 s
 Time = 7.862e-05 s
 Simulation completed = 98.275%

Time Step =7863
 deltaT = 1e-08 s
 Time = 7.863e-05 s
Updating material motion ...
 Simulation completed = 98.2875%

Time Step =7864
 deltaT = 1e-08 s
 Time = 7.864e-05 s
 Simulation completed = 98.3%

Time Step =7865
 deltaT = 1e-08 s
 Time = 7.865e-05 s
Updating material motion ...
 Simulation completed = 98.3125%

Time Step =7866
 deltaT = 1e-08 s
 Time = 7.866e-05 s
 Simulation completed = 98.325%

Time Step =7867
 deltaT = 1e-08 s
 Time = 7.867e-05 s
Updating material motion ...
 Simulation completed = 98.3375%

Time Step =7868
 deltaT = 1e-08 s
 Time = 7.868e-05 s
 Simulation completed = 98.35%

Time Step =7869
 deltaT = 1e-08 s
 Time = 7.869e-05 s
Updating material motion ...
 Simulation completed = 98.3625%

Time Step =7870
 deltaT = 1e-08 s
 Time = 7.87e-05 s
 Simulation completed = 98.375%

Time Step =7871
 deltaT = 1e-08 s
 Time = 7.871e-05 s
Updating material motion ...
 Simulation completed = 98.3875%

Time Step =7872
 deltaT = 1e-08 s
 Time = 7.872e-05 s
 Simulation completed = 98.4%

Time Step =7873
 deltaT = 1e-08 s
 Time = 7.873e-05 s
Updating material motion ...
 Simulation completed = 98.4125%

Time Step =7874
 deltaT = 1e-08 s
 Time = 7.874e-05 s
 Simulation completed = 98.425%

Time Step =7875
 deltaT = 1e-08 s
 Time = 7.875e-05 s
Updating material motion ...
 Simulation completed = 98.4375%

Time Step =7876
 deltaT = 1e-08 s
 Time = 7.876e-05 s
 Simulation completed = 98.45%

Time Step =7877
 deltaT = 1e-08 s
 Time = 7.877e-05 s
Updating material motion ...
 Simulation completed = 98.4625%

Time Step =7878
 deltaT = 1e-08 s
 Time = 7.878e-05 s
 Simulation completed = 98.475%

Time Step =7879
 deltaT = 1e-08 s
 Time = 7.879e-05 s
Updating material motion ...
 Simulation completed = 98.4875%

Time Step =7880
 deltaT = 1e-08 s
 Time = 7.88e-05 s
 Simulation completed = 98.5%

Time Step =7881
 deltaT = 1e-08 s
 Time = 7.881e-05 s
Updating material motion ...
 Simulation completed = 98.5125%

Time Step =7882
 deltaT = 1e-08 s
 Time = 7.882e-05 s
 Simulation completed = 98.525%

Time Step =7883
 deltaT = 1e-08 s
 Time = 7.883e-05 s
Updating material motion ...
 Simulation completed = 98.5375%

Time Step =7884
 deltaT = 1e-08 s
 Time = 7.884e-05 s
 Simulation completed = 98.55%

Time Step =7885
 deltaT = 1e-08 s
 Time = 7.885e-05 s
Updating material motion ...
 Simulation completed = 98.5625%

Time Step =7886
 deltaT = 1e-08 s
 Time = 7.886e-05 s
 Simulation completed = 98.575%

Time Step =7887
 deltaT = 1e-08 s
 Time = 7.887e-05 s
Updating material motion ...
 Simulation completed = 98.5875%

Time Step =7888
 deltaT = 1e-08 s
 Time = 7.888e-05 s
 Simulation completed = 98.6%

Time Step =7889
 deltaT = 1e-08 s
 Time = 7.889e-05 s
Updating material motion ...
 Simulation completed = 98.6125%

Time Step =7890
 deltaT = 1e-08 s
 Time = 7.89e-05 s
 Simulation completed = 98.625%

Time Step =7891
 deltaT = 1e-08 s
 Time = 7.891e-05 s
Updating material motion ...
 Simulation completed = 98.6375%

Time Step =7892
 deltaT = 1e-08 s
 Time = 7.892e-05 s
 Simulation completed = 98.65%

Time Step =7893
 deltaT = 1e-08 s
 Time = 7.893e-05 s
Updating material motion ...
 Simulation completed = 98.6625%

Time Step =7894
 deltaT = 1e-08 s
 Time = 7.894e-05 s
 Simulation completed = 98.675%

Time Step =7895
 deltaT = 1e-08 s
 Time = 7.895e-05 s
Updating material motion ...
 Simulation completed = 98.6875%

Time Step =7896
 deltaT = 1e-08 s
 Time = 7.896e-05 s
 Simulation completed = 98.7%

Time Step =7897
 deltaT = 1e-08 s
 Time = 7.897e-05 s
Updating material motion ...
 Simulation completed = 98.7125%

Time Step =7898
 deltaT = 1e-08 s
 Time = 7.898e-05 s
 Simulation completed = 98.725%

Time Step =7899
 deltaT = 1e-08 s
 Time = 7.899e-05 s
Updating material motion ...
 Simulation completed = 98.7375%

Time Step =7900
 deltaT = 1e-08 s
 Time = 7.9e-05 s
Post Processing ...
 Simulation completed = 98.75%

Time Step =7901
 deltaT = 1e-08 s
 Time = 7.901e-05 s
Updating material motion ...
 Simulation completed = 98.7625%

Time Step =7902
 deltaT = 1e-08 s
 Time = 7.902e-05 s
 Simulation completed = 98.775%

Time Step =7903
 deltaT = 1e-08 s
 Time = 7.903e-05 s
Updating material motion ...
 Simulation completed = 98.7875%

Time Step =7904
 deltaT = 1e-08 s
 Time = 7.904e-05 s
 Simulation completed = 98.8%

Time Step =7905
 deltaT = 1e-08 s
 Time = 7.905e-05 s
Updating material motion ...
 Simulation completed = 98.8125%

Time Step =7906
 deltaT = 1e-08 s
 Time = 7.906e-05 s
 Simulation completed = 98.825%

Time Step =7907
 deltaT = 1e-08 s
 Time = 7.907e-05 s
Updating material motion ...
 Simulation completed = 98.8375%

Time Step =7908
 deltaT = 1e-08 s
 Time = 7.908e-05 s
 Simulation completed = 98.85%

Time Step =7909
 deltaT = 1e-08 s
 Time = 7.909e-05 s
Updating material motion ...
 Simulation completed = 98.8625%

Time Step =7910
 deltaT = 1e-08 s
 Time = 7.91e-05 s
 Simulation completed = 98.875%

Time Step =7911
 deltaT = 1e-08 s
 Time = 7.911e-05 s
Updating material motion ...
 Simulation completed = 98.8875%

Time Step =7912
 deltaT = 1e-08 s
 Time = 7.912e-05 s
 Simulation completed = 98.9%

Time Step =7913
 deltaT = 1e-08 s
 Time = 7.913e-05 s
Updating material motion ...
 Simulation completed = 98.9125%

Time Step =7914
 deltaT = 1e-08 s
 Time = 7.914e-05 s
 Simulation completed = 98.925%

Time Step =7915
 deltaT = 1e-08 s
 Time = 7.915e-05 s
Updating material motion ...
 Simulation completed = 98.9375%

Time Step =7916
 deltaT = 1e-08 s
 Time = 7.916e-05 s
 Simulation completed = 98.95%

Time Step =7917
 deltaT = 1e-08 s
 Time = 7.917e-05 s
Updating material motion ...
 Simulation completed = 98.9625%

Time Step =7918
 deltaT = 1e-08 s
 Time = 7.918e-05 s
 Simulation completed = 98.975%

Time Step =7919
 deltaT = 1e-08 s
 Time = 7.919e-05 s
Updating material motion ...
 Simulation completed = 98.9875%

Time Step =7920
 deltaT = 1e-08 s
 Time = 7.92e-05 s
 Simulation completed = 99%

Time Step =7921
 deltaT = 1e-08 s
 Time = 7.921e-05 s
Updating material motion ...
 Simulation completed = 99.0125%

Time Step =7922
 deltaT = 1e-08 s
 Time = 7.922e-05 s
 Simulation completed = 99.025%

Time Step =7923
 deltaT = 1e-08 s
 Time = 7.923e-05 s
Updating material motion ...
 Simulation completed = 99.0375%

Time Step =7924
 deltaT = 1e-08 s
 Time = 7.924e-05 s
 Simulation completed = 99.05%

Time Step =7925
 deltaT = 1e-08 s
 Time = 7.925e-05 s
Updating material motion ...
 Simulation completed = 99.0625%

Time Step =7926
 deltaT = 1e-08 s
 Time = 7.926e-05 s
 Simulation completed = 99.075%

Time Step =7927
 deltaT = 1e-08 s
 Time = 7.927e-05 s
Updating material motion ...
 Simulation completed = 99.0875%

Time Step =7928
 deltaT = 1e-08 s
 Time = 7.928e-05 s
 Simulation completed = 99.1%

Time Step =7929
 deltaT = 1e-08 s
 Time = 7.929e-05 s
Updating material motion ...
 Simulation completed = 99.1125%

Time Step =7930
 deltaT = 1e-08 s
 Time = 7.93e-05 s
 Simulation completed = 99.125%

Time Step =7931
 deltaT = 1e-08 s
 Time = 7.931e-05 s
Updating material motion ...
 Simulation completed = 99.1375%

Time Step =7932
 deltaT = 1e-08 s
 Time = 7.932e-05 s
 Simulation completed = 99.15%

Time Step =7933
 deltaT = 1e-08 s
 Time = 7.933e-05 s
Updating material motion ...
 Simulation completed = 99.1625%

Time Step =7934
 deltaT = 1e-08 s
 Time = 7.934e-05 s
 Simulation completed = 99.175%

Time Step =7935
 deltaT = 1e-08 s
 Time = 7.935e-05 s
Updating material motion ...
 Simulation completed = 99.1875%

Time Step =7936
 deltaT = 1e-08 s
 Time = 7.936e-05 s
 Simulation completed = 99.2%

Time Step =7937
 deltaT = 1e-08 s
 Time = 7.937e-05 s
Updating material motion ...
 Simulation completed = 99.2125%

Time Step =7938
 deltaT = 1e-08 s
 Time = 7.938e-05 s
 Simulation completed = 99.225%

Time Step =7939
 deltaT = 1e-08 s
 Time = 7.939e-05 s
Updating material motion ...
 Simulation completed = 99.2375%

Time Step =7940
 deltaT = 1e-08 s
 Time = 7.94e-05 s
 Simulation completed = 99.25%

Time Step =7941
 deltaT = 1e-08 s
 Time = 7.941e-05 s
Updating material motion ...
 Simulation completed = 99.2625%

Time Step =7942
 deltaT = 1e-08 s
 Time = 7.942e-05 s
 Simulation completed = 99.275%

Time Step =7943
 deltaT = 1e-08 s
 Time = 7.943e-05 s
Updating material motion ...
 Simulation completed = 99.2875%

Time Step =7944
 deltaT = 1e-08 s
 Time = 7.944e-05 s
 Simulation completed = 99.3%

Time Step =7945
 deltaT = 1e-08 s
 Time = 7.945e-05 s
Updating material motion ...
 Simulation completed = 99.3125%

Time Step =7946
 deltaT = 1e-08 s
 Time = 7.946e-05 s
 Simulation completed = 99.325%

Time Step =7947
 deltaT = 1e-08 s
 Time = 7.947e-05 s
Updating material motion ...
 Simulation completed = 99.3375%

Time Step =7948
 deltaT = 1e-08 s
 Time = 7.948e-05 s
 Simulation completed = 99.35%

Time Step =7949
 deltaT = 1e-08 s
 Time = 7.949e-05 s
Updating material motion ...
 Simulation completed = 99.3625%

Time Step =7950
 deltaT = 1e-08 s
 Time = 7.95e-05 s
 Simulation completed = 99.375%

Time Step =7951
 deltaT = 1e-08 s
 Time = 7.951e-05 s
Updating material motion ...
 Simulation completed = 99.3875%

Time Step =7952
 deltaT = 1e-08 s
 Time = 7.952e-05 s
 Simulation completed = 99.4%

Time Step =7953
 deltaT = 1e-08 s
 Time = 7.953e-05 s
Updating material motion ...
 Simulation completed = 99.4125%

Time Step =7954
 deltaT = 1e-08 s
 Time = 7.954e-05 s
 Simulation completed = 99.425%

Time Step =7955
 deltaT = 1e-08 s
 Time = 7.955e-05 s
Updating material motion ...
 Simulation completed = 99.4375%

Time Step =7956
 deltaT = 1e-08 s
 Time = 7.956e-05 s
 Simulation completed = 99.45%

Time Step =7957
 deltaT = 1e-08 s
 Time = 7.957e-05 s
Updating material motion ...
 Simulation completed = 99.4625%

Time Step =7958
 deltaT = 1e-08 s
 Time = 7.958e-05 s
 Simulation completed = 99.475%

Time Step =7959
 deltaT = 1e-08 s
 Time = 7.959e-05 s
Updating material motion ...
 Simulation completed = 99.4875%

Time Step =7960
 deltaT = 1e-08 s
 Time = 7.96e-05 s
 Simulation completed = 99.5%

Time Step =7961
 deltaT = 1e-08 s
 Time = 7.961e-05 s
Updating material motion ...
 Simulation completed = 99.5125%

Time Step =7962
 deltaT = 1e-08 s
 Time = 7.962e-05 s
 Simulation completed = 99.525%

Time Step =7963
 deltaT = 1e-08 s
 Time = 7.963e-05 s
Updating material motion ...
 Simulation completed = 99.5375%

Time Step =7964
 deltaT = 1e-08 s
 Time = 7.964e-05 s
 Simulation completed = 99.55%

Time Step =7965
 deltaT = 1e-08 s
 Time = 7.965e-05 s
Updating material motion ...
 Simulation completed = 99.5625%

Time Step =7966
 deltaT = 1e-08 s
 Time = 7.966e-05 s
 Simulation completed = 99.575%

Time Step =7967
 deltaT = 1e-08 s
 Time = 7.967e-05 s
Updating material motion ...
 Simulation completed = 99.5875%

Time Step =7968
 deltaT = 1e-08 s
 Time = 7.968e-05 s
 Simulation completed = 99.6%

Time Step =7969
 deltaT = 1e-08 s
 Time = 7.969e-05 s
Updating material motion ...
 Simulation completed = 99.6125%

Time Step =7970
 deltaT = 1e-08 s
 Time = 7.97e-05 s
 Simulation completed = 99.625%

Time Step =7971
 deltaT = 1e-08 s
 Time = 7.971e-05 s
Updating material motion ...
 Simulation completed = 99.6375%

Time Step =7972
 deltaT = 1e-08 s
 Time = 7.972e-05 s
 Simulation completed = 99.65%

Time Step =7973
 deltaT = 1e-08 s
 Time = 7.973e-05 s
Updating material motion ...
 Simulation completed = 99.6625%

Time Step =7974
 deltaT = 1e-08 s
 Time = 7.974e-05 s
 Simulation completed = 99.675%

Time Step =7975
 deltaT = 1e-08 s
 Time = 7.975e-05 s
Updating material motion ...
 Simulation completed = 99.6875%

Time Step =7976
 deltaT = 1e-08 s
 Time = 7.976e-05 s
 Simulation completed = 99.7%

Time Step =7977
 deltaT = 1e-08 s
 Time = 7.977e-05 s
Updating material motion ...
 Simulation completed = 99.7125%

Time Step =7978
 deltaT = 1e-08 s
 Time = 7.978e-05 s
 Simulation completed = 99.725%

Time Step =7979
 deltaT = 1e-08 s
 Time = 7.979e-05 s
Updating material motion ...
 Simulation completed = 99.7375%

Time Step =7980
 deltaT = 1e-08 s
 Time = 7.98e-05 s
 Simulation completed = 99.75%

Time Step =7981
 deltaT = 1e-08 s
 Time = 7.981e-05 s
Updating material motion ...
 Simulation completed = 99.7625%

Time Step =7982
 deltaT = 1e-08 s
 Time = 7.982e-05 s
 Simulation completed = 99.775%

Time Step =7983
 deltaT = 1e-08 s
 Time = 7.983e-05 s
Updating material motion ...
 Simulation completed = 99.7875%

Time Step =7984
 deltaT = 1e-08 s
 Time = 7.984e-05 s
 Simulation completed = 99.8%

Time Step =7985
 deltaT = 1e-08 s
 Time = 7.985e-05 s
Updating material motion ...
 Simulation completed = 99.8125%

Time Step =7986
 deltaT = 1e-08 s
 Time = 7.986e-05 s
 Simulation completed = 99.825%

Time Step =7987
 deltaT = 1e-08 s
 Time = 7.987e-05 s
Updating material motion ...
 Simulation completed = 99.8375%

Time Step =7988
 deltaT = 1e-08 s
 Time = 7.988e-05 s
 Simulation completed = 99.85%

Time Step =7989
 deltaT = 1e-08 s
 Time = 7.989e-05 s
Updating material motion ...
 Simulation completed = 99.8625%

Time Step =7990
 deltaT = 1e-08 s
 Time = 7.99e-05 s
 Simulation completed = 99.875%

Time Step =7991
 deltaT = 1e-08 s
 Time = 7.991e-05 s
Updating material motion ...
 Simulation completed = 99.8875%

Time Step =7992
 deltaT = 1e-08 s
 Time = 7.992e-05 s
 Simulation completed = 99.9%

Time Step =7993
 deltaT = 1e-08 s
 Time = 7.993e-05 s
Updating material motion ...
 Simulation completed = 99.9125%

Time Step =7994
 deltaT = 1e-08 s
 Time = 7.994e-05 s
 Simulation completed = 99.925%

Time Step =7995
 deltaT = 1e-08 s
 Time = 7.995e-05 s
Updating material motion ...
 Simulation completed = 99.9375%

Time Step =7996
 deltaT = 1e-08 s
 Time = 7.996e-05 s
 Simulation completed = 99.95%

Time Step =7997
 deltaT = 1e-08 s
 Time = 7.997e-05 s
Updating material motion ...
 Simulation completed = 99.9625%

Time Step =7998
 deltaT = 1e-08 s
 Time = 7.998e-05 s
 Simulation completed = 99.975%

Time Step =7999
 deltaT = 1e-08 s
 Time = 7.999e-05 s
Updating material motion ...
 Simulation completed = 99.9875%

Time Step =8000
 deltaT = 1e-08 s
 Time = 8e-05 s
Post Processing ...
 Simulation completed = 100%

ExecutionTime = 480.42 s  ClockTime = 481 s
End

