/*---------------------------------------------------------------------------*\
  =========                 |
  \\      /  F ield         | OpenFOAM: The Open Source CFD Toolbox
   \\    /   O peration     | Website:  https://openfoam.org
    \\  /    A nd           | Version:  6
     \\/     M anipulation  |
\*---------------------------------------------------------------------------*/
Build  : 6
Exec   : vcALEFoam
Date   : Nov 18 2020
Time   : 12:11:19
Host   : "DESKTOP-JSPBMTA"
PID    : 15158
I/O    : uncollated
Case   : /home/thomas/OpenFOAM/vcALE/tutorials/vcALEFoam/Templates/impactColumn
nProcs : 1
sigFpe : Enabling floating point exception trapping (FOAM_SIGFPE).
fileModificationChecking : Monitoring run-time modified files using timeStampMaster (fileModificationSkew 10)
allowSystemOperations : Allowing user-supplied system call operations

// * * * * * * * * * * * * * * * * * * * * * * * * * * * * * * * * * * * * * //
Create time

Create mesh for time = 0

Reading dictionaries ...
Reading data from dictionaries ...
value of 'traction': (0 0 0)
GCL technique: withoutInvolution
PHat term: withoutInvolution
Post Processing: activated
Average P* coefficient alpha: 0
Computation of solvedW's RHS: use of Pstar (1) or wDot (0): 1
Creating mesh parameters ...
Creating mesh coordinate fields ...
Creating strain measure fields ...
Creating linear momentum field ...
Creating material velocity field ...
Creating material energy field...
Creating constitutive model ...
Creating fields for wave speeds ...
Creating ALE Material Model ...
Creating ALE Spatial Model ...
Creating fields for gradient ...
Creating fields for fluxes ...
Creating fields for post-processing ...
Creating variables for time ...
Printing data ...

Printing material properties ...
Constitutive model = vonMises
Density = 8930 [1 -3 0 0 0 0 0]
Young's modulus = 1.77e+11 [1 -1 -2 0 0 0 0]
Poisson's ratio = 0.35 [0 0 0 0 0 0 0]
Lame's first parameter lambda = 1.5296296e+11 [1 -1 -2 0 0 0 0]
Lame's second parameter mu = 6.5555556e+10 [1 -1 -2 0 0 0 0]
Bulk modulus kappa = 1.9666667e+11 [1 -1 -2 0 0 0 0]
Hardening modulus = 1e+08 [1 -1 -2 0 0 0 0]
Initial yield stress = 4e+08 [0 -1 -2 0 0 0 0]
Linear pressure wave speed = 5640.1424 [0 1 -1 0 0 0 0]
Linear shear wave speed = 2709.4368 [0 1 -1 0 0 0 0]


Model: materialModel
aleModel: neoHookean
fictitious Motion Type: sinusoid_order2inTime
beta: 0
T: 1




Model: spatialModel
aleModel: neoHookean
fictitious Motion Type: sinusoid_order2inTime
beta: 0
T: 1


Printing mesh centroids
Centroid of primal mesh = (0.0013406239 0.0162 0.0013406239)
Centroid of dual mesh = (0.0013406239 0.0162 0.0013406239)

Objects all created !


Post Processing ...
Energy of the system:
 intE = 7.5442285e+20
Theoretical kinetic energy of the system:
 kinE = 7.5442285e+20
Theoretical potential energy of the system:
 potE = 0
Theoretical energy of the system:
 theoE = 7.5442285e+20
time           : 0
CoG            : 0 0 0
sample solvedW : (0 0 0)
sample lm      : (0 -2027110 0)
sample pR      : (0 -2027110 0)
sample tC2     : (-0 0 0 362841.9 -1875984.5 -676906.86 -0 0 0)
sample wC      : (-0 0 0 -0 0 0 -0 0 0)
sample lambdaH : 1
sample rhsLm1  : (0 0 0)
sample rhsLm2  : (0 0 0)
sample rhsLm3  : (0 0 0)
sample rhsLm4  : (-1.4880603e-13 1.8173697e-12 2.6002228e-14)
sample rhsLm   : (0 0 0)
sample rhsW    : (0 0 0)
deltaT         : 1e-08

Time Step =1
 deltaT = 1e-08 s
 Time = 1e-08 s
Updating material motion ...
 Simulation completed = 0.0125%

Time Step =2
 deltaT = 1e-08 s
 Time = 2e-08 s
 Simulation completed = 0.025%

Time Step =3
 deltaT = 1e-08 s
 Time = 3e-08 s
Updating material motion ...
 Simulation completed = 0.0375%

Time Step =4
 deltaT = 1e-08 s
 Time = 4e-08 s
 Simulation completed = 0.05%

Time Step =5
 deltaT = 1e-08 s
 Time = 5e-08 s
Updating material motion ...
 Simulation completed = 0.0625%

Time Step =6
 deltaT = 1e-08 s
 Time = 6e-08 s
 Simulation completed = 0.075%

Time Step =7
 deltaT = 1e-08 s
 Time = 7e-08 s
Updating material motion ...
 Simulation completed = 0.0875%

Time Step =8
 deltaT = 1e-08 s
 Time = 8e-08 s
 Simulation completed = 0.1%

Time Step =9
 deltaT = 1e-08 s
 Time = 9e-08 s
Updating material motion ...
 Simulation completed = 0.1125%

Time Step =10
 deltaT = 1e-08 s
 Time = 1e-07 s
Post Processing ...
Energy of the system:
 intE = 7.5812786e+20
Theoretical kinetic energy of the system:
 kinE = 7.1800602e+20
Theoretical potential energy of the system:
 potE = 1.1202329e+19
Theoretical energy of the system:
 theoE = 7.2920835e+20
time           : 1e-07
CoG            : 4.5732326e-07 -0.0011510363 5.1175841e-07
sample solvedW : (-7.2002696e-29 -9.000337e-30 -1.3838018e-28)
sample lm      : (-1.5166743e-11 -2027110 -2.8047541e-10)
sample pR      : (-1.5166743e-11 -2027110 -2.8047541e-10)
sample tC2     : (-0 0 0 362841.9 -1875984.5 -676906.86 -0 0 0)
sample wC      : (-0 0 0 -0 0 0 -0 0 0)
sample lambdaH : 1
sample rhsLm1  : (0.00054601706 0.002827809 -0.001383738)
sample rhsLm2  : (-1.7658195e-35 -2.7600846e-19 -7.0690467e-36)
sample rhsLm3  : (0 0 0)
sample rhsLm4  : (-0.00096223654 0.009871613 0.0014649924)
sample rhsLm   : (0 0 0)
sample rhsW    : (-1.4400539e-21 -1.8000674e-22 -2.7676036e-21)
deltaT         : 1e-08
 Simulation completed = 0.125%

Time Step =11
 deltaT = 1e-08 s
 Time = 1.1e-07 s
Updating material motion ...
 Simulation completed = 0.1375%

Time Step =12
 deltaT = 1e-08 s
 Time = 1.2e-07 s
 Simulation completed = 0.15%

Time Step =13
 deltaT = 1e-08 s
 Time = 1.3e-07 s
Updating material motion ...
 Simulation completed = 0.1625%

Time Step =14
 deltaT = 1e-08 s
 Time = 1.4e-07 s
 Simulation completed = 0.175%

Time Step =15
 deltaT = 1e-08 s
 Time = 1.5e-07 s
Updating material motion ...
 Simulation completed = 0.1875%

Time Step =16
 deltaT = 1e-08 s
 Time = 1.6e-07 s
 Simulation completed = 0.2%

Time Step =17
 deltaT = 1e-08 s
 Time = 1.7e-07 s
Updating material motion ...
 Simulation completed = 0.2125%

Time Step =18
 deltaT = 1e-08 s
 Time = 1.8e-07 s
 Simulation completed = 0.225%

Time Step =19
 deltaT = 1e-08 s
 Time = 1.9e-07 s
Updating material motion ...
 Simulation completed = 0.2375%

Time Step =20
 deltaT = 1e-08 s
 Time = 2e-07 s
Post Processing ...
Energy of the system:
 intE = 7.6670176e+20
Theoretical kinetic energy of the system:
 kinE = 7.1288102e+20
Theoretical potential energy of the system:
 potE = 3.7023465e+19
Theoretical energy of the system:
 theoE = 7.4990448e+20
time           : 2e-07
CoG            : 4.2111822e-06 -0.0022912354 4.6692865e-06
sample solvedW : (-1.4580546e-28 -1.6875632e-29 -2.7676036e-28)
sample lm      : (-1.1968904e-10 -2027110 -7.4264705e-11)
sample pR      : (-1.1968904e-10 -2027110 -7.4264705e-11)
sample tC2     : (-0 0 0 362841.9 -1875984.5 -676906.86 -0 0 0)
sample wC      : (-0 0 0 -0 0 0 -0 0 0)
sample lambdaH : 1
sample rhsLm1  : (0.0017586348 6.4868405e-05 0.0038313263)
sample rhsLm2  : (-6.1667851e-35 -5.3486682e-19 -6.0538696e-36)
sample rhsLm3  : (0 0 0)
sample rhsLm4  : (-0.0017581194 0.0064455316 -0.0017653212)
sample rhsLm   : (0 0 0)
sample rhsW    : (-1.6200607e-21 -1.3500506e-22 -2.7676036e-21)
deltaT         : 1e-08
 Simulation completed = 0.25%

Time Step =21
 deltaT = 1e-08 s
 Time = 2.1e-07 s
Updating material motion ...
 Simulation completed = 0.2625%

Time Step =22
 deltaT = 1e-08 s
 Time = 2.2e-07 s
 Simulation completed = 0.275%

Time Step =23
 deltaT = 1e-08 s
 Time = 2.3e-07 s
Updating material motion ...
 Simulation completed = 0.2875%

Time Step =24
 deltaT = 1e-08 s
 Time = 2.4e-07 s
 Simulation completed = 0.3%

Time Step =25
 deltaT = 1e-08 s
 Time = 2.5e-07 s
Updating material motion ...
 Simulation completed = 0.3125%

Time Step =26
 deltaT = 1e-08 s
 Time = 2.6e-07 s
 Simulation completed = 0.325%

Time Step =27
 deltaT = 1e-08 s
 Time = 2.7e-07 s
Updating material motion ...
 Simulation completed = 0.3375%

Time Step =28
 deltaT = 1e-08 s
 Time = 2.8e-07 s
 Simulation completed = 0.35%

Time Step =29
 deltaT = 1e-08 s
 Time = 2.9e-07 s
Updating material motion ...
 Simulation completed = 0.3625%

Time Step =30
 deltaT = 1e-08 s
 Time = 3e-07 s
Post Processing ...
Energy of the system:
 intE = 7.7523668e+20
Theoretical kinetic energy of the system:
 kinE = 7.1242288e+20
Theoretical potential energy of the system:
 potE = 6.2028493e+19
Theoretical energy of the system:
 theoE = 7.7445137e+20
time           : 3e-07
CoG            : 1.417075e-05 -0.0034199069 1.5551795e-05
sample solvedW : (-2.1420802e-28 -2.2725851e-29 -4.0434014e-28)
sample lm      : (4.0773251e-10 -2027110 -3.4163668e-11)
sample pR      : (4.0773251e-10 -2027110 -3.4163668e-11)
sample tC2     : (-0 0 0 362841.9 -1875984.5 -676906.86 -0 0 0)
sample wC      : (-0 0 0 -0 0 0 -0 0 0)
sample lambdaH : 1
sample rhsLm1  : (0.011356224 -0.011385831 -0.0014288391)
sample rhsLm2  : (-4.8519089e-35 -7.6818552e-19 2.1375754e-35)
sample rhsLm3  : (0 0 0)
sample rhsLm4  : (-0.0046315508 0.0019070049 0.00045959267)
sample rhsLm   : (0 0 0)
sample rhsW    : (-1.2600472e-21 -9.000337e-23 -2.4075902e-21)
deltaT         : 1e-08
 Simulation completed = 0.375%

Time Step =31
 deltaT = 1e-08 s
 Time = 3.1e-07 s
Updating material motion ...
 Simulation completed = 0.3875%

Time Step =32
 deltaT = 1e-08 s
 Time = 3.2e-07 s
 Simulation completed = 0.4%

Time Step =33
 deltaT = 1e-08 s
 Time = 3.3e-07 s
Updating material motion ...
 Simulation completed = 0.4125%

Time Step =34
 deltaT = 1e-08 s
 Time = 3.4e-07 s
 Simulation completed = 0.425%

Time Step =35
 deltaT = 1e-08 s
 Time = 3.5e-07 s
Updating material motion ...
 Simulation completed = 0.4375%

Time Step =36
 deltaT = 1e-08 s
 Time = 3.6e-07 s
 Simulation completed = 0.45%

Time Step =37
 deltaT = 1e-08 s
 Time = 3.7e-07 s
Updating material motion ...
 Simulation completed = 0.4625%

Time Step =38
 deltaT = 1e-08 s
 Time = 3.8e-07 s
 Simulation completed = 0.475%

Time Step =39
 deltaT = 1e-08 s
 Time = 3.9e-07 s
Updating material motion ...
 Simulation completed = 0.4875%

Time Step =40
 deltaT = 1e-08 s
 Time = 4e-07 s
Post Processing ...
Energy of the system:
 intE = 7.7906298e+20
Theoretical kinetic energy of the system:
 kinE = 7.1350099e+20
Theoretical potential energy of the system:
 potE = 8.3745618e+19
Theoretical energy of the system:
 theoE = 7.972466e+20
time           : 4e-07
CoG            : 3.1973042e-05 -0.0045365376 3.4779109e-05
sample solvedW : (-2.7721038e-28 -2.7901045e-29 -5.2280708e-28)
sample lm      : (5.3381568e-10 -2027110 -9.6298072e-11)
sample pR      : (5.3381568e-10 -2027110 -9.6298072e-11)
sample tC2     : (-0 0 0 362841.9 -1875984.5 -676906.86 -0 0 0)
sample wC      : (-0 0 0 -0 0 0 -0 0 0)
sample lambdaH : 1
sample rhsLm1  : (0.0047622227 -0.014396669 -0.0015744517)
sample rhsLm2  : (-1.2764023e-34 -9.5847463e-19 -1.771107e-35)
sample rhsLm3  : (0 0 0)
sample rhsLm4  : (-0.0069962631 0.0026936396 0.0012775695)
sample rhsLm   : (0 0 0)
sample rhsW    : (-1.2600472e-21 -4.5001685e-23 -2.3400876e-21)
deltaT         : 1e-08
 Simulation completed = 0.5%

Time Step =41
 deltaT = 1e-08 s
 Time = 4.1e-07 s
Updating material motion ...
 Simulation completed = 0.5125%

Time Step =42
 deltaT = 1e-08 s
 Time = 4.2e-07 s
 Simulation completed = 0.525%

Time Step =43
 deltaT = 1e-08 s
 Time = 4.3e-07 s
Updating material motion ...
 Simulation completed = 0.5375%

Time Step =44
 deltaT = 1e-08 s
 Time = 4.4e-07 s
 Simulation completed = 0.55%

Time Step =45
 deltaT = 1e-08 s
 Time = 4.5e-07 s
Updating material motion ...
 Simulation completed = 0.5625%

Time Step =46
 deltaT = 1e-08 s
 Time = 4.6e-07 s
 Simulation completed = 0.575%

Time Step =47
 deltaT = 1e-08 s
 Time = 4.7e-07 s
Updating material motion ...
 Simulation completed = 0.5875%

Time Step =48
 deltaT = 1e-08 s
 Time = 4.8e-07 s
 Simulation completed = 0.6%

Time Step =49
 deltaT = 1e-08 s
 Time = 4.9e-07 s
Updating material motion ...
 Simulation completed = 0.6125%

Time Step =50
 deltaT = 1e-08 s
 Time = 5e-07 s
Post Processing ...
Energy of the system:
 intE = 7.7643923e+20
Theoretical kinetic energy of the system:
 kinE = 7.1355475e+20
Theoretical potential energy of the system:
 potE = 1.0400292e+20
Theoretical energy of the system:
 theoE = 8.1755768e+20
time           : 5e-07
CoG            : 5.8117565e-05 -0.0056430618 6.2716597e-05
sample solvedW : (-3.312124e-28 -2.8351062e-29 -6.3441126e-28)
sample lm      : (2.9828552e-10 -2027110 2.5096067e-10)
sample pR      : (2.9828552e-10 -2027110 2.5096067e-10)
sample tC2     : (-0 0 0 362841.9 -1875984.5 -676906.86 -0 0 0)
sample wC      : (-0 0 0 -0 0 0 -0 0 0)
sample lambdaH : 1
sample rhsLm1  : (0.0037634369 -0.015465935 0.0038490918)
sample rhsLm2  : (-2.5213388e-34 -1.0966194e-18 -8.6547337e-36)
sample rhsLm3  : (0 0 0)
sample rhsLm4  : (-0.0044836486 0.0067374232 -0.0016366569)
sample rhsLm   : (0 0 0)
sample rhsW    : (-1.0800404e-21 4.5001685e-23 -1.9800741e-21)
deltaT         : 1e-08
 Simulation completed = 0.625%

Time Step =51
 deltaT = 1e-08 s
 Time = 5.1e-07 s
Updating material motion ...
 Simulation completed = 0.6375%

Time Step =52
 deltaT = 1e-08 s
 Time = 5.2e-07 s
 Simulation completed = 0.65%

Time Step =53
 deltaT = 1e-08 s
 Time = 5.3e-07 s
Updating material motion ...
 Simulation completed = 0.6625%

Time Step =54
 deltaT = 1e-08 s
 Time = 5.4e-07 s
 Simulation completed = 0.675%

Time Step =55
 deltaT = 1e-08 s
 Time = 5.5e-07 s
Updating material motion ...
 Simulation completed = 0.6875%

Time Step =56
 deltaT = 1e-08 s
 Time = 5.6e-07 s
 Simulation completed = 0.7%

Time Step =57
 deltaT = 1e-08 s
 Time = 5.7e-07 s
Updating material motion ...
 Simulation completed = 0.7125%

Time Step =58
 deltaT = 1e-08 s
 Time = 5.8e-07 s
 Simulation completed = 0.725%

Time Step =59
 deltaT = 1e-08 s
 Time = 5.9e-07 s
Updating material motion ...
 Simulation completed = 0.7375%

Time Step =60
 deltaT = 1e-08 s
 Time = 6e-07 s
Post Processing ...
Energy of the system:
 intE = 7.6928272e+20
Theoretical kinetic energy of the system:
 kinE = 7.12893e+20
Theoretical potential energy of the system:
 potE = 1.248102e+20
Theoretical energy of the system:
 theoE = 8.377032e+20
time           : 6e-07
CoG            : 9.226803e-05 -0.0067425225 9.87888e-05
sample solvedW : (-3.8611446e-28 -2.9026087e-29 -7.3937769e-28)
sample lm      : (5.4387943e-10 -2027110 5.55787e-10)
sample pR      : (5.4387943e-10 -2027110 5.55787e-10)
sample tC2     : (-0 0 0 362841.9 -1875984.5 -676906.86 -0 0 0)
sample wC      : (-0 0 0 -0 0 0 -0 0 0)
sample lambdaH : 1
sample rhsLm1  : (0.013049139 -0.026465169 0.0091802451)
sample rhsLm2  : (-4.0946503e-34 -1.1879505e-18 -1.4938463e-35)
sample rhsLm3  : (0 0 0)
sample rhsLm4  : (-0.0085367083 0.014367969 -0.0045205874)
sample rhsLm   : (0 0 0)
sample rhsW    : (-1.2600472e-21 0 -2.13758e-21)
deltaT         : 1e-08
 Simulation completed = 0.75%

Time Step =61
 deltaT = 1e-08 s
 Time = 6.1e-07 s
Updating material motion ...
 Simulation completed = 0.7625%

Time Step =62
 deltaT = 1e-08 s
 Time = 6.2e-07 s
 Simulation completed = 0.775%

Time Step =63
 deltaT = 1e-08 s
 Time = 6.3e-07 s
Updating material motion ...
 Simulation completed = 0.7875%

Time Step =64
 deltaT = 1e-08 s
 Time = 6.4e-07 s
 Simulation completed = 0.8%

Time Step =65
 deltaT = 1e-08 s
 Time = 6.5e-07 s
Updating material motion ...
 Simulation completed = 0.8125%

Time Step =66
 deltaT = 1e-08 s
 Time = 6.6e-07 s
 Simulation completed = 0.825%

Time Step =67
 deltaT = 1e-08 s
 Time = 6.7e-07 s
Updating material motion ...
 Simulation completed = 0.8375%

Time Step =68
 deltaT = 1e-08 s
 Time = 6.8e-07 s
 Simulation completed = 0.85%

Time Step =69
 deltaT = 1e-08 s
 Time = 6.9e-07 s
Updating material motion ...
 Simulation completed = 0.8625%

Time Step =70
 deltaT = 1e-08 s
 Time = 7e-07 s
Post Processing ...
Energy of the system:
 intE = 7.6185984e+20
Theoretical kinetic energy of the system:
 kinE = 7.114437e+20
Theoretical potential energy of the system:
 potE = 1.5163137e+20
Theoretical energy of the system:
 theoE = 8.6307508e+20
time           : 7e-07
CoG            : 0.00013346016 -0.0078379168 0.00014171996
sample solvedW : (-4.4821678e-28 -3.1951196e-29 -8.3905642e-28)
sample lm      : (1.0260689e-09 -2027110 8.0010108e-10)
sample pR      : (1.0260689e-09 -2027110 8.0010108e-10)
sample tC2     : (-0 0 0 362841.9 -1875984.5 -676906.86 -0 0 0)
sample wC      : (-0 0 0 -0 0 0 -0 0 0)
sample lambdaH : 1
sample rhsLm1  : (0.017930111 -0.020096248 -0.00014133586)
sample rhsLm2  : (-5.3346248e-34 -1.2268174e-18 4.3108029e-35)
sample rhsLm3  : (0 0 0)
sample rhsLm4  : (-0.011277371 0.0072554183 -0.0050488977)
sample rhsLm   : (0 0 0)
sample rhsW    : (-1.2600472e-21 0 -1.8675699e-21)
deltaT         : 1e-08
 Simulation completed = 0.875%

Time Step =71
 deltaT = 1e-08 s
 Time = 7.1e-07 s
Updating material motion ...
 Simulation completed = 0.8875%

Time Step =72
 deltaT = 1e-08 s
 Time = 7.2e-07 s
 Simulation completed = 0.9%

Time Step =73
 deltaT = 1e-08 s
 Time = 7.3e-07 s
Updating material motion ...
 Simulation completed = 0.9125%

Time Step =74
 deltaT = 1e-08 s
 Time = 7.4e-07 s
 Simulation completed = 0.925%

Time Step =75
 deltaT = 1e-08 s
 Time = 7.5e-07 s
Updating material motion ...
 Simulation completed = 0.9375%

Time Step =76
 deltaT = 1e-08 s
 Time = 7.6e-07 s
 Simulation completed = 0.95%

Time Step =77
 deltaT = 1e-08 s
 Time = 7.7e-07 s
Updating material motion ...
 Simulation completed = 0.9625%

Time Step =78
 deltaT = 1e-08 s
 Time = 7.8e-07 s
 Simulation completed = 0.975%

Time Step =79
 deltaT = 1e-08 s
 Time = 7.9e-07 s
Updating material motion ...
 Simulation completed = 0.9875%

Time Step =80
 deltaT = 1e-08 s
 Time = 8e-07 s
Post Processing ...
Energy of the system:
 intE = 7.5813349e+20
Theoretical kinetic energy of the system:
 kinE = 7.0863779e+20
Theoretical potential energy of the system:
 potE = 1.9142971e+20
Theoretical energy of the system:
 theoE = 9.000675e+20
time           : 8e-07
CoG            : 0.00018017045 -0.0089316361 0.00018967747
sample solvedW : (-5.1031911e-28 -3.1726188e-29 -9.2523464e-28)
sample lm      : (1.4076189e-09 -2027110 4.4613252e-10)
sample pR      : (1.4076189e-09 -2027110 4.4613252e-10)
sample tC2     : (-0 0 0 362841.9 -1875984.5 -676906.86 -0 0 0)
sample wC      : (-0 0 0 -0 0 0 -0 0 0)
sample lambdaH : 1
sample rhsLm1  : (0.017016246 -0.017187615 0.00089778023)
sample rhsLm2  : (-6.3700385e-34 -1.2066238e-18 2.2314765e-35)
sample rhsLm3  : (0 0 0)
sample rhsLm4  : (-0.016114336 0.0091940537 -0.0013772868)
sample rhsLm   : (0 0 0)
sample rhsW    : (-1.0800404e-21 9.000337e-23 -1.6425615e-21)
deltaT         : 1e-08
 Simulation completed = 1%

Time Step =81
 deltaT = 1e-08 s
 Time = 8.1e-07 s
Updating material motion ...
 Simulation completed = 1.0125%

Time Step =82
 deltaT = 1e-08 s
 Time = 8.2e-07 s
 Simulation completed = 1.025%

Time Step =83
 deltaT = 1e-08 s
 Time = 8.3e-07 s
Updating material motion ...
 Simulation completed = 1.0375%

Time Step =84
 deltaT = 1e-08 s
 Time = 8.4e-07 s
 Simulation completed = 1.05%

Time Step =85
 deltaT = 1e-08 s
 Time = 8.5e-07 s
Updating material motion ...
 Simulation completed = 1.0625%

Time Step =86
 deltaT = 1e-08 s
 Time = 8.6e-07 s
 Simulation completed = 1.075%

Time Step =87
 deltaT = 1e-08 s
 Time = 8.7e-07 s
Updating material motion ...
 Simulation completed = 1.0875%

Time Step =88
 deltaT = 1e-08 s
 Time = 8.8e-07 s
 Simulation completed = 1.1%

Time Step =89
 deltaT = 1e-08 s
 Time = 8.9e-07 s
Updating material motion ...
 Simulation completed = 1.1125%

Time Step =90
 deltaT = 1e-08 s
 Time = 9e-07 s
Post Processing ...
Energy of the system:
 intE = 7.5926365e+20
Theoretical kinetic energy of the system:
 kinE = 7.0501251e+20
Theoretical potential energy of the system:
 potE = 2.4667088e+20
Theoretical energy of the system:
 theoE = 9.5168338e+20
time           : 9e-07
CoG            : 0.00023035255 -0.010025467 0.00024040176
sample solvedW : (-5.6567118e-28 -2.7901045e-29 -9.9656232e-28)
sample lm      : (2.1473657e-09 -2027110 5.6890879e-10)
sample pR      : (2.1473657e-09 -2027110 5.6890879e-10)
sample tC2     : (-0 0 0 362841.9 -1875984.5 -676906.86 -0 0 0)
sample wC      : (-0 0 0 -0 0 0 -0 0 0)
sample lambdaH : 1
sample rhsLm1  : (0.021144224 -0.012955404 -0.0047066897)
sample rhsLm2  : (1.5826612e-34 -1.1268249e-18 1.7743932e-34)
sample rhsLm3  : (0 0 0)
sample rhsLm4  : (0.002582234 0.10237979 0.0157087)
sample rhsLm   : (0 0 0)
sample rhsW    : (-1.1700438e-21 9.000337e-23 -8.7753286e-22)
deltaT         : 1e-08
 Simulation completed = 1.125%

Time Step =91
 deltaT = 1e-08 s
 Time = 9.1e-07 s
Updating material motion ...
 Simulation completed = 1.1375%

Time Step =92
 deltaT = 1e-08 s
 Time = 9.2e-07 s
 Simulation completed = 1.15%

Time Step =93
 deltaT = 1e-08 s
 Time = 9.3e-07 s
Updating material motion ...
 Simulation completed = 1.1625%

Time Step =94
 deltaT = 1e-08 s
 Time = 9.4e-07 s
 Simulation completed = 1.175%

Time Step =95
 deltaT = 1e-08 s
 Time = 9.5e-07 s
Updating material motion ...
 Simulation completed = 1.1875%

Time Step =96
 deltaT = 1e-08 s
 Time = 9.6e-07 s
 Simulation completed = 1.2%

Time Step =97
 deltaT = 1e-08 s
 Time = 9.7e-07 s
Updating material motion ...
 Simulation completed = 1.2125%

Time Step =98
 deltaT = 1e-08 s
 Time = 9.8e-07 s
 Simulation completed = 1.225%

Time Step =99
 deltaT = 1e-08 s
 Time = 9.9e-07 s
Updating material motion ...
 Simulation completed = 1.2375%

Time Step =100
 deltaT = 1e-08 s
 Time = 1e-06 s
Post Processing ...
Energy of the system:
 intE = 7.6327652e+20
Theoretical kinetic energy of the system:
 kinE = 7.0175865e+20
Theoretical potential energy of the system:
 potE = 3.1388091e+20
Theoretical energy of the system:
 theoE = 1.0156396e+21
time           : 1e-06
CoG            : 0.00028155698 -0.01112082 0.00029141149
sample solvedW : (-6.0977283e-28 -2.1825817e-29 -1.0401014e-27)
sample lm      : (8.0827251e-09 -2027110 4.2677471e-09)
sample pR      : (8.0827251e-09 -2027110 4.2677471e-09)
sample tC2     : (-0 0 0 362841.9 -1875984.5 -676906.86 -0 0 0)
sample wC      : (-0 0 0 -0 0 0 -0 0 0)
sample lambdaH : 1
sample rhsLm1  : (0.075449384 -0.49791173 0.011568806)
sample rhsLm2  : (-1.8132086e-33 -1.0031087e-18 -1.0491868e-33)
sample rhsLm3  : (0 0 0)
sample rhsLm4  : (0.0032390848 -0.43251967 0.045084194)
sample rhsLm   : (0 0 0)
sample rhsW    : (-8.1003033e-22 1.3500506e-22 -8.5503202e-22)
deltaT         : 1e-08
 Simulation completed = 1.25%

Time Step =101
 deltaT = 1e-08 s
 Time = 1.01e-06 s
Updating material motion ...
 Simulation completed = 1.2625%

Time Step =102
 deltaT = 1e-08 s
 Time = 1.02e-06 s
 Simulation completed = 1.275%

Time Step =103
 deltaT = 1e-08 s
 Time = 1.03e-06 s
Updating material motion ...
 Simulation completed = 1.2875%

Time Step =104
 deltaT = 1e-08 s
 Time = 1.04e-06 s
 Simulation completed = 1.3%

Time Step =105
 deltaT = 1e-08 s
 Time = 1.05e-06 s
Updating material motion ...
 Simulation completed = 1.3125%

Time Step =106
 deltaT = 1e-08 s
 Time = 1.06e-06 s
 Simulation completed = 1.325%

Time Step =107
 deltaT = 1e-08 s
 Time = 1.07e-06 s
Updating material motion ...
 Simulation completed = 1.3375%

Time Step =108
 deltaT = 1e-08 s
 Time = 1.08e-06 s
 Simulation completed = 1.35%

Time Step =109
 deltaT = 1e-08 s
 Time = 1.09e-06 s
Updating material motion ...
 Simulation completed = 1.3625%

Time Step =110
 deltaT = 1e-08 s
 Time = 1.1e-06 s
Post Processing ...
Energy of the system:
 intE = 7.6713639e+20
Theoretical kinetic energy of the system:
 kinE = 6.9949807e+20
Theoretical potential energy of the system:
 potE = 3.8717348e+20
Theoretical energy of the system:
 theoE = 1.0866716e+21
time           : 1.1e-06
CoG            : 0.00033119109 -0.012218869 0.00034029132
sample solvedW : (-6.516244e-28 -1.3950522e-29 -1.0837531e-27)
sample lm      : (-5.5080804e-09 -2027110 -2.3312089e-09)
sample pR      : (-5.5080804e-09 -2027110 -2.3312089e-09)
sample tC2     : (-0 0 0 362841.9 -1875984.5 -676906.86 -0 0 0)
sample wC      : (-0 0 0 -0 0 0 -0 0 0)
sample lambdaH : 1
sample rhsLm1  : (0.07527326 0.20405586 -0.019225975)
sample rhsLm2  : (-3.5204282e-32 -8.3492216e-19 -1.7367652e-32)
sample rhsLm3  : (0 0 0)
sample rhsLm4  : (-0.68831375 -2.2181885 -0.3603454)
sample rhsLm   : (0 0 0)
sample rhsW    : (-9.000337e-22 1.8000674e-22 -7.6502865e-22)
deltaT         : 1e-08
 Simulation completed = 1.375%

Time Step =111
 deltaT = 1e-08 s
 Time = 1.11e-06 s
Updating material motion ...
 Simulation completed = 1.3875%

Time Step =112
 deltaT = 1e-08 s
 Time = 1.12e-06 s
 Simulation completed = 1.4%

Time Step =113
 deltaT = 1e-08 s
 Time = 1.13e-06 s
Updating material motion ...
 Simulation completed = 1.4125%

Time Step =114
 deltaT = 1e-08 s
 Time = 1.14e-06 s
 Simulation completed = 1.425%

Time Step =115
 deltaT = 1e-08 s
 Time = 1.15e-06 s
Updating material motion ...
 Simulation completed = 1.4375%

Time Step =116
 deltaT = 1e-08 s
 Time = 1.16e-06 s
 Simulation completed = 1.45%

Time Step =117
 deltaT = 1e-08 s
 Time = 1.17e-06 s
Updating material motion ...
 Simulation completed = 1.4625%

Time Step =118
 deltaT = 1e-08 s
 Time = 1.18e-06 s
 Simulation completed = 1.475%

Time Step =119
 deltaT = 1e-08 s
 Time = 1.19e-06 s
Updating material motion ...
 Simulation completed = 1.4875%

Time Step =120
 deltaT = 1e-08 s
 Time = 1.2e-06 s
Post Processing ...
Energy of the system:
 intE = 7.6912645e+20
Theoretical kinetic energy of the system:
 kinE = 6.9833648e+20
Theoretical potential energy of the system:
 potE = 4.6179581e+20
Theoretical energy of the system:
 theoE = 1.1601323e+21
time           : 1.2e-06
CoG            : 0.00037687694 -0.01332045 0.00038499158
sample solvedW : (-6.8402561e-28 -6.3002359e-30 -1.1060289e-27)
sample lm      : (-1.3378005e-07 -2027110 -9.8442105e-08)
sample pR      : (-1.3378005e-07 -2027110 -9.8442105e-08)
sample tC2     : (-0 0 0 362841.9 -1875984.5 -676906.86 -0 0 0)
sample wC      : (-0 0 0 -0 0 0 -0 0 0)
sample lambdaH : 1
sample rhsLm1  : (-0.145732 13.994636 -0.34092652)
sample rhsLm2  : (-9.6838573e-33 -6.3273896e-19 6.2633713e-33)
sample rhsLm3  : (0 0 0)
sample rhsLm4  : (-1.4620872 7.9836036 -1.038079)
sample rhsLm   : (0 0 0)
sample rhsW    : (-6.3002359e-22 1.3500506e-22 -3.6001348e-22)
deltaT         : 1e-08
 Simulation completed = 1.5%

Time Step =121
 deltaT = 1e-08 s
 Time = 1.21e-06 s
Updating material motion ...
 Simulation completed = 1.5125%

Time Step =122
 deltaT = 1e-08 s
 Time = 1.22e-06 s
 Simulation completed = 1.525%

Time Step =123
 deltaT = 1e-08 s
 Time = 1.23e-06 s
Updating material motion ...
 Simulation completed = 1.5375%

Time Step =124
 deltaT = 1e-08 s
 Time = 1.24e-06 s
 Simulation completed = 1.55%

Time Step =125
 deltaT = 1e-08 s
 Time = 1.25e-06 s
Updating material motion ...
 Simulation completed = 1.5625%

Time Step =126
 deltaT = 1e-08 s
 Time = 1.26e-06 s
 Simulation completed = 1.575%

Time Step =127
 deltaT = 1e-08 s
 Time = 1.27e-06 s
Updating material motion ...
 Simulation completed = 1.5875%

Time Step =128
 deltaT = 1e-08 s
 Time = 1.28e-06 s
 Simulation completed = 1.6%

Time Step =129
 deltaT = 1e-08 s
 Time = 1.29e-06 s
Updating material motion ...
 Simulation completed = 1.6125%

Time Step =130
 deltaT = 1e-08 s
 Time = 1.3e-06 s
Post Processing ...
Energy of the system:
 intE = 7.6944148e+20
Theoretical kinetic energy of the system:
 kinE = 6.9828992e+20
Theoretical potential energy of the system:
 potE = 5.3551069e+20
Theoretical energy of the system:
 theoE = 1.2338006e+21
time           : 1.3e-06
CoG            : 0.00041679945 -0.014425858 0.00042406041
sample solvedW : (-7.0562642e-28 2.0250758e-30 -1.1150293e-27)
sample lm      : (7.6632746e-08 -2027110 -1.816221e-09)
sample pR      : (7.6632746e-08 -2027110 -1.816221e-09)
sample tC2     : (-0 0 0 362841.9 -1875984.5 -676906.86 -0 0 0)
sample wC      : (-0 0 0 -0 0 0 -0 0 0)
sample lambdaH : 1
sample rhsLm1  : (0.16335332 21.701722 0.64099132)
sample rhsLm2  : (7.242795e-31 -4.1983725e-19 3.9591113e-31)
sample rhsLm3  : (0 0 0)
sample rhsLm4  : (9.5519971 55.395052 5.4943396)
sample rhsLm   : (0 0 0)
sample rhsW    : (-2.7001011e-22 1.3500506e-22 -4.5001685e-23)
deltaT         : 1e-08
 Simulation completed = 1.625%

Time Step =131
 deltaT = 1e-08 s
 Time = 1.31e-06 s
Updating material motion ...
 Simulation completed = 1.6375%

Time Step =132
 deltaT = 1e-08 s
 Time = 1.32e-06 s
 Simulation completed = 1.65%

Time Step =133
 deltaT = 1e-08 s
 Time = 1.33e-06 s
Updating material motion ...
 Simulation completed = 1.6625%

Time Step =134
 deltaT = 1e-08 s
 Time = 1.34e-06 s
 Simulation completed = 1.675%

Time Step =135
 deltaT = 1e-08 s
 Time = 1.35e-06 s
Updating material motion ...
 Simulation completed = 1.6875%

Time Step =136
 deltaT = 1e-08 s
 Time = 1.36e-06 s
 Simulation completed = 1.7%

Time Step =137
 deltaT = 1e-08 s
 Time = 1.37e-06 s
Updating material motion ...
 Simulation completed = 1.7125%

Time Step =138
 deltaT = 1e-08 s
 Time = 1.38e-06 s
 Simulation completed = 1.725%

Time Step =139
 deltaT = 1e-08 s
 Time = 1.39e-06 s
Updating material motion ...
 Simulation completed = 1.7375%

Time Step =140
 deltaT = 1e-08 s
 Time = 1.4e-06 s
Post Processing ...
Energy of the system:
 intE = 7.6919652e+20
Theoretical kinetic energy of the system:
 kinE = 6.9922634e+20
Theoretical potential energy of the system:
 potE = 6.0839246e+20
Theoretical energy of the system:
 theoE = 1.3076188e+21
time           : 1.4e-06
CoG            : 0.00044994353 -0.015534724 0.00045675706
sample solvedW : (-7.1912693e-28 1.0575396e-29 -1.1125542e-27)
sample lm      : (2.7160174e-06 -2027110 1.8068862e-06)
sample pR      : (2.7160174e-06 -2027110 1.8068862e-06)
sample tC2     : (-0 0 0 362841.9 -1875984.5 -676906.86 -0 0 0)
sample wC      : (-0 0 0 -0 0 0 -0 0 0)
sample lambdaH : 1
sample rhsLm1  : (-1.6171798 -216.10166 3.1449682)
sample rhsLm2  : (1.7861394e-30 -1.9608088e-19 7.630966e-31)
sample rhsLm3  : (0 0 0)
sample rhsLm4  : (44.805593 -11.216149 27.390817)
sample rhsLm   : (0 0 0)
sample rhsW    : (-2.7001011e-22 1.3500506e-22 6.7502528e-23)
deltaT         : 1e-08
 Simulation completed = 1.75%

Time Step =141
 deltaT = 1e-08 s
 Time = 1.41e-06 s
Updating material motion ...
 Simulation completed = 1.7625%

Time Step =142
 deltaT = 1e-08 s
 Time = 1.42e-06 s
 Simulation completed = 1.775%

Time Step =143
 deltaT = 1e-08 s
 Time = 1.43e-06 s
Updating material motion ...
 Simulation completed = 1.7875%

Time Step =144
 deltaT = 1e-08 s
 Time = 1.44e-06 s
 Simulation completed = 1.8%

Time Step =145
 deltaT = 1e-08 s
 Time = 1.45e-06 s
Updating material motion ...
 Simulation completed = 1.8125%

Time Step =146
 deltaT = 1e-08 s
 Time = 1.46e-06 s
 Simulation completed = 1.825%

Time Step =147
 deltaT = 1e-08 s
 Time = 1.47e-06 s
Updating material motion ...
 Simulation completed = 1.8375%

Time Step =148
 deltaT = 1e-08 s
 Time = 1.48e-06 s
 Simulation completed = 1.85%

Time Step =149
 deltaT = 1e-08 s
 Time = 1.49e-06 s
Updating material motion ...
 Simulation completed = 1.8625%

Time Step =150
 deltaT = 1e-08 s
 Time = 1.5e-06 s
Post Processing ...
Energy of the system:
 intE = 7.6926574e+20
Theoretical kinetic energy of the system:
 kinE = 7.006804e+20
Theoretical potential energy of the system:
 potE = 6.818449e+20
Theoretical energy of the system:
 theoE = 1.3825253e+21
time           : 1.5e-06
CoG            : 0.00047616668 -0.016646087 0.00048305195
sample solvedW : (-7.2992733e-28 1.8450691e-29 -1.0889283e-27)
sample lm      : (4.7620363e-06 -2027110 3.4019629e-06)
sample pR      : (4.7620363e-06 -2027110 3.4019629e-06)
sample tC2     : (-0 0 0 362841.9 -1875984.5 -676906.86 -0 0 0)
sample wC      : (-0 0 0 -0 0 0 -0 0 0)
sample lambdaH : 1
sample rhsLm1  : (-34.805623 -1012.6098 -19.547361)
sample rhsLm2  : (-5.7212072e-30 3.2586263e-20 -3.7181597e-30)
sample rhsLm3  : (0 0 0)
sample rhsLm4  : (-18.768197 -809.30868 -14.80724)
sample rhsLm   : (0 0 0)
sample rhsW    : (-9.000337e-23 1.3500506e-22 5.1751938e-22)
deltaT         : 1e-08
 Simulation completed = 1.875%

Time Step =151
 deltaT = 1e-08 s
 Time = 1.51e-06 s
Updating material motion ...
 Simulation completed = 1.8875%

Time Step =152
 deltaT = 1e-08 s
 Time = 1.52e-06 s
 Simulation completed = 1.9%

Time Step =153
 deltaT = 1e-08 s
 Time = 1.53e-06 s
Updating material motion ...
 Simulation completed = 1.9125%

Time Step =154
 deltaT = 1e-08 s
 Time = 1.54e-06 s
 Simulation completed = 1.925%

Time Step =155
 deltaT = 1e-08 s
 Time = 1.55e-06 s
Updating material motion ...
 Simulation completed = 1.9375%

Time Step =156
 deltaT = 1e-08 s
 Time = 1.56e-06 s
 Simulation completed = 1.95%

Time Step =157
 deltaT = 1e-08 s
 Time = 1.57e-06 s
Updating material motion ...
 Simulation completed = 1.9625%

Time Step =158
 deltaT = 1e-08 s
 Time = 1.58e-06 s
 Simulation completed = 1.975%

Time Step =159
 deltaT = 1e-08 s
 Time = 1.59e-06 s
Updating material motion ...
 Simulation completed = 1.9875%

Time Step =160
 deltaT = 1e-08 s
 Time = 1.6e-06 s
Post Processing ...
Energy of the system:
 intE = 7.6970066e+20
Theoretical kinetic energy of the system:
 kinE = 7.0179234e+20
Theoretical potential energy of the system:
 potE = 7.5755836e+20
Theoretical energy of the system:
 theoE = 1.4593507e+21
time           : 1.6e-06
CoG            : 0.00049613893 -0.017758589 0.000503562
sample solvedW : (-7.2182703e-28 2.2500843e-29 -1.0662024e-27)
sample lm      : (-2.7720618e-05 -2027110 -1.8709627e-05)
sample pR      : (-2.7720618e-05 -2027110 -1.8709627e-05)
sample tC2     : (-0 0 0 362841.9 -1875984.5 -676906.86 -0 0 0)
sample wC      : (-0 0 0 -0 0 0 -0 0 0)
sample lambdaH : 1
sample rhsLm1  : (-100.92411 -127.84022 -105.1007)
sample rhsLm2  : (-3.8811228e-29 2.3651906e-19 -1.9981054e-29)
sample rhsLm3  : (0 0 0)
sample rhsLm4  : (-612.06195 -2138.2758 -380.55681)
sample rhsLm   : (0 0 0)
sample rhsW    : (2.7001011e-22 0 3.8251432e-22)
deltaT         : 1e-08
 Simulation completed = 2%

Time Step =161
 deltaT = 1e-08 s
 Time = 1.61e-06 s
Updating material motion ...
 Simulation completed = 2.0125%

Time Step =162
 deltaT = 1e-08 s
 Time = 1.62e-06 s
 Simulation completed = 2.025%

Time Step =163
 deltaT = 1e-08 s
 Time = 1.63e-06 s
Updating material motion ...
 Simulation completed = 2.0375%

Time Step =164
 deltaT = 1e-08 s
 Time = 1.64e-06 s
 Simulation completed = 2.05%

Time Step =165
 deltaT = 1e-08 s
 Time = 1.65e-06 s
Updating material motion ...
 Simulation completed = 2.0625%

Time Step =166
 deltaT = 1e-08 s
 Time = 1.66e-06 s
 Simulation completed = 2.075%

Time Step =167
 deltaT = 1e-08 s
 Time = 1.67e-06 s
Updating material motion ...
 Simulation completed = 2.0875%

Time Step =168
 deltaT = 1e-08 s
 Time = 1.68e-06 s
 Simulation completed = 2.1%

Time Step =169
 deltaT = 1e-08 s
 Time = 1.69e-06 s
Updating material motion ...
 Simulation completed = 2.1125%

Time Step =170
 deltaT = 1e-08 s
 Time = 1.7e-06 s
Post Processing ...
Energy of the system:
 intE = 7.7011983e+20
Theoretical kinetic energy of the system:
 kinE = 7.0179074e+20
Theoretical potential energy of the system:
 potE = 8.368792e+20
Theoretical energy of the system:
 theoE = 1.5386699e+21
time           : 1.7e-06
CoG            : 0.00051119589 -0.018870722 0.00051945676
sample solvedW : (-6.997762e-28 1.8450691e-29 -1.0484268e-27)
sample lm      : (-0.00014148363 -2027110 -9.2878665e-05)
sample pR      : (-0.00014148363 -2027110 -9.2878665e-05)
sample tC2     : (-0 0 0 362841.9 -1875984.5 -676906.86 -0 0 0)
sample wC      : (-0 0 0 -0 0 0 -0 0 0)
sample lambdaH : 1
sample rhsLm1  : (378.5932 12978.473 113.60749)
sample rhsLm2  : (-6.1776594e-29 4.0130537e-19 -2.8170234e-29)
sample rhsLm3  : (0 0 0)
sample rhsLm4  : (-1686.502 2495.5397 -895.74676)
sample rhsLm   : (0 0 0)
sample rhsW    : (4.5001685e-22 -1.8000674e-22 3.6001348e-22)
deltaT         : 1e-08
 Simulation completed = 2.125%

Time Step =171
 deltaT = 1e-08 s
 Time = 1.71e-06 s
Updating material motion ...
 Simulation completed = 2.1375%

Time Step =172
 deltaT = 1e-08 s
 Time = 1.72e-06 s
 Simulation completed = 2.15%

Time Step =173
 deltaT = 1e-08 s
 Time = 1.73e-06 s
Updating material motion ...
 Simulation completed = 2.1625%

Time Step =174
 deltaT = 1e-08 s
 Time = 1.74e-06 s
 Simulation completed = 2.175%

Time Step =175
 deltaT = 1e-08 s
 Time = 1.75e-06 s
Updating material motion ...
 Simulation completed = 2.1875%

Time Step =176
 deltaT = 1e-08 s
 Time = 1.76e-06 s
 Simulation completed = 2.2%

Time Step =177
 deltaT = 1e-08 s
 Time = 1.77e-06 s
Updating material motion ...
 Simulation completed = 2.2125%

Time Step =178
 deltaT = 1e-08 s
 Time = 1.78e-06 s
 Simulation completed = 2.225%

Time Step =179
 deltaT = 1e-08 s
 Time = 1.79e-06 s
Updating material motion ...
 Simulation completed = 2.2375%

Time Step =180
 deltaT = 1e-08 s
 Time = 1.8e-06 s
Post Processing ...
Energy of the system:
 intE = 7.7024321e+20
Theoretical kinetic energy of the system:
 kinE = 7.0037437e+20
Theoretical potential energy of the system:
 potE = 9.2063108e+20
Theoretical energy of the system:
 theoE = 1.6210055e+21
time           : 1.8e-06
CoG            : 0.0005231449 -0.019981065 0.00053235224
sample solvedW : (-6.7097512e-28 1.3050489e-29 -1.0214257e-27)
sample lm      : (-9.4676301e-05 -2027110 -2.4551325e-05)
sample pR      : (-9.4676301e-05 -2027110 -2.4551325e-05)
sample tC2     : (-0 0 0 362841.9 -1875984.5 -676906.86 -0 0 0)
sample wC      : (-0 0 0 -0 0 0 -0 0 0)
sample lambdaH : 1
sample rhsLm1  : (3544.064 49840.695 2327.3258)
sample rhsLm2  : (1.7023317e-28 5.4145128e-19 6.0682332e-29)
sample rhsLm3  : (0 0 0)
sample rhsLm4  : (575.25821 29643.814 1220.6565)
sample rhsLm   : (0 0 0)
sample rhsW    : (1.1700438e-21 -2.2500843e-22 8.5503202e-22)
deltaT         : 1e-08
 Simulation completed = 2.25%

Time Step =181
 deltaT = 1e-08 s
 Time = 1.81e-06 s
Updating material motion ...
 Simulation completed = 2.2625%

Time Step =182
 deltaT = 1e-08 s
 Time = 1.82e-06 s
 Simulation completed = 2.275%

Time Step =183
 deltaT = 1e-08 s
 Time = 1.83e-06 s
Updating material motion ...
 Simulation completed = 2.2875%

Time Step =184
 deltaT = 1e-08 s
 Time = 1.84e-06 s
 Simulation completed = 2.3%

Time Step =185
 deltaT = 1e-08 s
 Time = 1.85e-06 s
Updating material motion ...
 Simulation completed = 2.3125%

Time Step =186
 deltaT = 1e-08 s
 Time = 1.86e-06 s
 Simulation completed = 2.325%

Time Step =187
 deltaT = 1e-08 s
 Time = 1.87e-06 s
Updating material motion ...
 Simulation completed = 2.3375%

Time Step =188
 deltaT = 1e-08 s
 Time = 1.88e-06 s
 Simulation completed = 2.35%

Time Step =189
 deltaT = 1e-08 s
 Time = 1.89e-06 s
Updating material motion ...
 Simulation completed = 2.3625%

Time Step =190
 deltaT = 1e-08 s
 Time = 1.9e-06 s
Post Processing ...
Energy of the system:
 intE = 7.6998094e+20
Theoretical kinetic energy of the system:
 kinE = 6.9767079e+20
Theoretical potential energy of the system:
 potE = 1.0091659e+21
Theoretical energy of the system:
 theoE = 1.7068367e+21
time           : 1.9e-06
CoG            : 0.00053405325 -0.021088438 0.00054417604
sample solvedW : (-6.1517303e-28 -6.7502528e-31 -9.8474937e-28)
sample lm      : (0.0012944288 -2027110 0.0010452176)
sample pR      : (0.0012944288 -2027110 0.0010452176)
sample tC2     : (-0 0 0 362841.9 -1875984.5 -676906.86 -0 0 0)
sample wC      : (-0 0 0 -0 0 0 -0 0 0)
sample lambdaH : 1
sample rhsLm1  : (9924.5958 51648.956 7700.6661)
sample rhsLm2  : (1.1498437e-27 6.3369116e-19 3.6416144e-28)
sample rhsLm3  : (0 0 0)
sample rhsLm4  : (17099.999 77775.787 12242.002)
sample rhsLm   : (0 0 0)
sample rhsW    : (1.1700438e-21 -3.6001348e-22 6.7502528e-22)
deltaT         : 1e-08
 Simulation completed = 2.375%

Time Step =191
 deltaT = 1e-08 s
 Time = 1.91e-06 s
Updating material motion ...
 Simulation completed = 2.3875%

Time Step =192
 deltaT = 1e-08 s
 Time = 1.92e-06 s
 Simulation completed = 2.4%

Time Step =193
 deltaT = 1e-08 s
 Time = 1.93e-06 s
Updating material motion ...
 Simulation completed = 2.4125%

Time Step =194
 deltaT = 1e-08 s
 Time = 1.94e-06 s
 Simulation completed = 2.425%

Time Step =195
 deltaT = 1e-08 s
 Time = 1.95e-06 s
Updating material motion ...
 Simulation completed = 2.4375%

Time Step =196
 deltaT = 1e-08 s
 Time = 1.96e-06 s
 Simulation completed = 2.45%

Time Step =197
 deltaT = 1e-08 s
 Time = 1.97e-06 s
Updating material motion ...
 Simulation completed = 2.4625%

Time Step =198
 deltaT = 1e-08 s
 Time = 1.98e-06 s
 Simulation completed = 2.475%

Time Step =199
 deltaT = 1e-08 s
 Time = 1.99e-06 s
Updating material motion ...
 Simulation completed = 2.4875%

Time Step =200
 deltaT = 1e-08 s
 Time = 2e-06 s
Post Processing ...
Energy of the system:
 intE = 7.6937078e+20
Theoretical kinetic energy of the system:
 kinE = 6.9413068e+20
Theoretical potential energy of the system:
 potE = 1.1024922e+21
Theoretical energy of the system:
 theoE = 1.7966229e+21
time           : 2e-06
CoG            : 0.00054605159 -0.022191942 0.00055700807
sample solvedW : (-5.4497041e-28 -2.1150792e-29 -9.6292356e-28)
sample lm      : (0.0055206681 -2027110 0.0038919436)
sample pR      : (0.0055206681 -2027110 0.0038919436)
sample tC2     : (-0 0 0 362841.9 -1875984.5 -676906.86 -0 0 0)
sample wC      : (-0 0 0 -0 0 0 -0 0 0)
sample lambdaH : 1
sample rhsLm1  : (-2899.2742 -291829.83 1373.969)
sample rhsLm2  : (2.9771604e-27 6.9143359e-19 1.0810955e-27)
sample rhsLm3  : (0 0 0)
sample rhsLm4  : (55218.171 24321.126 29623.236)
sample rhsLm   : (0 0 0)
sample rhsW    : (1.710064e-21 -4.9501854e-22 6.7502528e-22)
deltaT         : 1e-08
 Simulation completed = 2.5%

Time Step =201
 deltaT = 1e-08 s
 Time = 2.01e-06 s
Updating material motion ...
 Simulation completed = 2.5125%

Time Step =202
 deltaT = 1e-08 s
 Time = 2.02e-06 s
 Simulation completed = 2.525%

Time Step =203
 deltaT = 1e-08 s
 Time = 2.03e-06 s
Updating material motion ...
 Simulation completed = 2.5375%

Time Step =204
 deltaT = 1e-08 s
 Time = 2.04e-06 s
 Simulation completed = 2.55%

Time Step =205
 deltaT = 1e-08 s
 Time = 2.05e-06 s
Updating material motion ...
 Simulation completed = 2.5625%

Time Step =206
 deltaT = 1e-08 s
 Time = 2.06e-06 s
 Simulation completed = 2.575%

Time Step =207
 deltaT = 1e-08 s
 Time = 2.07e-06 s
Updating material motion ...
 Simulation completed = 2.5875%

Time Step =208
 deltaT = 1e-08 s
 Time = 2.08e-06 s
 Simulation completed = 2.6%

Time Step =209
 deltaT = 1e-08 s
 Time = 2.09e-06 s
Updating material motion ...
 Simulation completed = 2.6125%

Time Step =210
 deltaT = 1e-08 s
 Time = 2.1e-06 s
Post Processing ...
Energy of the system:
 intE = 7.6849375e+20
Theoretical kinetic energy of the system:
 kinE = 6.9040723e+20
Theoretical potential energy of the system:
 potE = 1.2004638e+21
Theoretical energy of the system:
 theoE = 1.8908711e+21
time           : 2.1e-06
CoG            : 0.00056115659 -0.023290961 0.00057288059
sample solvedW : (-4.567671e-28 -4.9276845e-29 -9.3007233e-28)
sample lm      : (0.0073767241 -2027110.1 0.0031782814)
sample pR      : (0.0073767241 -2027110.1 0.0031782814)
sample tC2     : (-0 0 0 362841.9 -1875984.5 -676906.86 -0 0 0)
sample wC      : (-0 0 0 -0 0 0 -0 0 0)
sample lambdaH : 1
sample rhsLm1  : (-130743.07 -1672730.7 -86465.647)
sample rhsLm2  : (2.9904638e-27 7.1082829e-19 3.582489e-27)
sample rhsLm3  : (0 0 0)
sample rhsLm4  : (70872.551 -514245.83 2243.0953)
sample rhsLm   : (0 0 0)
sample rhsW    : (2.0700775e-21 -6.7502528e-22 4.9501854e-22)
deltaT         : 1e-08
 Simulation completed = 2.625%

Time Step =211
 deltaT = 1e-08 s
 Time = 2.11e-06 s
Updating material motion ...
 Simulation completed = 2.6375%

Time Step =212
 deltaT = 1e-08 s
 Time = 2.12e-06 s
 Simulation completed = 2.65%

Time Step =213
 deltaT = 1e-08 s
 Time = 2.13e-06 s
Updating material motion ...
 Simulation completed = 2.6625%

Time Step =214
 deltaT = 1e-08 s
 Time = 2.14e-06 s
 Simulation completed = 2.675%

Time Step =215
 deltaT = 1e-08 s
 Time = 2.15e-06 s
Updating material motion ...
 Simulation completed = 2.6875%

Time Step =216
 deltaT = 1e-08 s
 Time = 2.16e-06 s
 Simulation completed = 2.7%

Time Step =217
 deltaT = 1e-08 s
 Time = 2.17e-06 s
Updating material motion ...
 Simulation completed = 2.7125%

Time Step =218
 deltaT = 1e-08 s
 Time = 2.18e-06 s
 Simulation completed = 2.725%

Time Step =219
 deltaT = 1e-08 s
 Time = 2.19e-06 s
Updating material motion ...
 Simulation completed = 2.7375%

Time Step =220
 deltaT = 1e-08 s
 Time = 2.2e-06 s
Post Processing ...
Energy of the system:
 intE = 7.6733527e+20
Theoretical kinetic energy of the system:
 kinE = 6.8706118e+20
Theoretical potential energy of the system:
 potE = 1.3030025e+21
Theoretical energy of the system:
 theoE = 1.9900636e+21
time           : 2.2e-06
CoG            : 0.00058109459 -0.024385178 0.0005935518
sample solvedW : (-3.5236319e-28 -8.7978294e-29 -9.0655895e-28)
sample lm      : (-0.023533008 -2027110.5 -0.02708446)
sample pR      : (-0.023533008 -2027110.5 -0.02708446)
sample tC2     : (-0 0 0 362841.9 -1875984.5 -676906.86 -0 0 0)
sample wC      : (-0 0 0 -0 0 0 -0 0 0)
sample lambdaH : 1
sample rhsLm1  : (-563892.79 -4495989.3 -401608.9)
sample rhsLm2  : (-1.0076639e-26 6.9060798e-19 1.256324e-26)
sample rhsLm3  : (0 0 0)
sample rhsLm4  : (-115174.69 -2069850.7 -214805.63)
sample rhsLm   : (0 0 0)
sample rhsW    : (2.2500843e-21 -8.1003033e-22 2.2500843e-22)
deltaT         : 1e-08
 Simulation completed = 2.75%

Time Step =221
 deltaT = 1e-08 s
 Time = 2.21e-06 s
Updating material motion ...
 Simulation completed = 2.7625%

Time Step =222
 deltaT = 1e-08 s
 Time = 2.22e-06 s
 Simulation completed = 2.775%

Time Step =223
 deltaT = 1e-08 s
 Time = 2.23e-06 s
Updating material motion ...
 Simulation completed = 2.7875%

Time Step =224
 deltaT = 1e-08 s
 Time = 2.24e-06 s
 Simulation completed = 2.8%

Time Step =225
 deltaT = 1e-08 s
 Time = 2.25e-06 s
Updating material motion ...
 Simulation completed = 2.8125%

Time Step =226
 deltaT = 1e-08 s
 Time = 2.26e-06 s
 Simulation completed = 2.825%

Time Step =227
 deltaT = 1e-08 s
 Time = 2.27e-06 s
Updating material motion ...
 Simulation completed = 2.8375%

Time Step =228
 deltaT = 1e-08 s
 Time = 2.28e-06 s
 Simulation completed = 2.85%

Time Step =229
 deltaT = 1e-08 s
 Time = 2.29e-06 s
Updating material motion ...
 Simulation completed = 2.8625%

Time Step =230
 deltaT = 1e-08 s
 Time = 2.3e-06 s
Post Processing ...
Energy of the system:
 intE = 7.6587209e+20
Theoretical kinetic energy of the system:
 kinE = 6.8442486e+20
Theoretical potential energy of the system:
 potE = 1.4102749e+21
Theoretical energy of the system:
 theoE = 2.0946998e+21
time           : 2.3e-06
CoG            : 0.00060712362 -0.025474582 0.00062028613
sample solvedW : (-2.3175868e-28 -1.3680512e-28 -8.9665857e-28)
sample lm      : (-0.15910899 -2027111.4 -0.142078)
sample pR      : (-0.15910899 -2027111.4 -0.142078)
sample tC2     : (-0 0 0 362841.9 -1875984.5 -676906.86 -0 0 0)
sample wC      : (-0 0 0 -0 0 0 -0 0 0)
sample lambdaH : 1
sample rhsLm1  : (-1311006.1 -5766741.2 -969871.62)
sample rhsLm2  : (-6.5545328e-26 6.216588e-19 3.1589312e-26)
sample rhsLm3  : (0 0 0)
sample rhsLm4  : (-854722.21 -4331575.2 -788455.34)
sample rhsLm   : (0 0 0)
sample rhsW    : (2.430091e-21 -1.0800404e-21 2.2500843e-22)
deltaT         : 1e-08
 Simulation completed = 2.875%

Time Step =231
 deltaT = 1e-08 s
 Time = 2.31e-06 s
Updating material motion ...
 Simulation completed = 2.8875%

Time Step =232
 deltaT = 1e-08 s
 Time = 2.32e-06 s
 Simulation completed = 2.9%

Time Step =233
 deltaT = 1e-08 s
 Time = 2.33e-06 s
Updating material motion ...
 Simulation completed = 2.9125%

Time Step =234
 deltaT = 1e-08 s
 Time = 2.34e-06 s
 Simulation completed = 2.925%

Time Step =235
 deltaT = 1e-08 s
 Time = 2.35e-06 s
Updating material motion ...
 Simulation completed = 2.9375%

Time Step =236
 deltaT = 1e-08 s
 Time = 2.36e-06 s
 Simulation completed = 2.95%

Time Step =237
 deltaT = 1e-08 s
 Time = 2.37e-06 s
Updating material motion ...
 Simulation completed = 2.9625%

Time Step =238
 deltaT = 1e-08 s
 Time = 2.38e-06 s
 Simulation completed = 2.975%

Time Step =239
 deltaT = 1e-08 s
 Time = 2.39e-06 s
Updating material motion ...
 Simulation completed = 2.9875%

Time Step =240
 deltaT = 1e-08 s
 Time = 2.4e-06 s
Post Processing ...
Energy of the system:
 intE = 7.6422032e+20
Theoretical kinetic energy of the system:
 kinE = 6.8256236e+20
Theoretical potential energy of the system:
 potE = 1.5227436e+21
Theoretical energy of the system:
 theoE = 2.205306e+21
time           : 2.4e-06
CoG            : 0.00063987798 -0.026559504 0.00065368188
sample solvedW : (-1.0575396e-28 -1.9148217e-28 -9.07909e-28)
sample lm      : (-0.45630247 -2027111.9 -0.36303912)
sample pR      : (-0.45630247 -2027111.9 -0.36303912)
sample tC2     : (-0 0 0 362841.9 -1875984.5 -676906.86 -0 0 0)
sample wC      : (-0 0 0 -0 0 0 -0 0 0)
sample lambdaH : 1
sample rhsLm1  : (-1007057.4 8653966.8 -821038.78)
sample rhsLm2  : (-2.0762848e-25 5.2404868e-19 2.7247818e-26)
sample rhsLm3  : (0 0 0)
sample rhsLm4  : (-2486146.7 -3598675 -1476601.9)
sample rhsLm   : (0 0 0)
sample rhsW    : (2.5200944e-21 -1.1700438e-21 -4.5001685e-22)
deltaT         : 1e-08
 Simulation completed = 3%

Time Step =241
 deltaT = 1e-08 s
 Time = 2.41e-06 s
Updating material motion ...
 Simulation completed = 3.0125%

Time Step =242
 deltaT = 1e-08 s
 Time = 2.42e-06 s
 Simulation completed = 3.025%

Time Step =243
 deltaT = 1e-08 s
 Time = 2.43e-06 s
Updating material motion ...
 Simulation completed = 3.0375%

Time Step =244
 deltaT = 1e-08 s
 Time = 2.44e-06 s
 Simulation completed = 3.05%

Time Step =245
 deltaT = 1e-08 s
 Time = 2.45e-06 s
Updating material motion ...
 Simulation completed = 3.0625%

Time Step =246
 deltaT = 1e-08 s
 Time = 2.46e-06 s
 Simulation completed = 3.075%

Time Step =247
 deltaT = 1e-08 s
 Time = 2.47e-06 s
Updating material motion ...
 Simulation completed = 3.0875%

Time Step =248
 deltaT = 1e-08 s
 Time = 2.48e-06 s
 Simulation completed = 3.1%

Time Step =249
 deltaT = 1e-08 s
 Time = 2.49e-06 s
Updating material motion ...
 Simulation completed = 3.1125%

Time Step =250
 deltaT = 1e-08 s
 Time = 2.5e-06 s
Post Processing ...
Energy of the system:
 intE = 7.6267622e+20
Theoretical kinetic energy of the system:
 kinE = 6.8129709e+20
Theoretical potential energy of the system:
 potE = 1.6410485e+21
Theoretical energy of the system:
 theoE = 2.3223456e+21
time           : 2.5e-06
CoG            : 0.00067927028 -0.027640601 0.00069358776
sample solvedW : (3.6451365e-29 -2.4818429e-28 -9.2590967e-28)
sample lm      : (-0.66170946 -2027108.1 -0.39336904)
sample pR      : (-0.66170946 -2027108.1 -0.39336904)
sample tC2     : (-0 0 0 362841.9 -1875984.5 -676906.86 -0 0 0)
sample wC      : (-0 0 0 -0 0 0 -0 0 0)
sample lambdaH : 1
sample rhsLm1  : (6095695.8 77625665 4234296.8)
sample rhsLm2  : (-4.3141266e-25 4.0115827e-19 -1.9066134e-25)
sample rhsLm3  : (0 0 0)
sample rhsLm4  : (-4790778.1 11262122 -617316.52)
sample rhsLm   : (0 0 0)
sample rhsW    : (2.8801078e-21 -1.0800404e-21 -2.7001011e-22)
deltaT         : 1e-08
 Simulation completed = 3.125%

Time Step =251
 deltaT = 1e-08 s
 Time = 2.51e-06 s
Updating material motion ...
 Simulation completed = 3.1375%

Time Step =252
 deltaT = 1e-08 s
 Time = 2.52e-06 s
 Simulation completed = 3.15%

Time Step =253
 deltaT = 1e-08 s
 Time = 2.53e-06 s
Updating material motion ...
 Simulation completed = 3.1625%

Time Step =254
 deltaT = 1e-08 s
 Time = 2.54e-06 s
 Simulation completed = 3.175%

Time Step =255
 deltaT = 1e-08 s
 Time = 2.55e-06 s
Updating material motion ...
 Simulation completed = 3.1875%

Time Step =256
 deltaT = 1e-08 s
 Time = 2.56e-06 s
 Simulation completed = 3.2%

Time Step =257
 deltaT = 1e-08 s
 Time = 2.57e-06 s
Updating material motion ...
 Simulation completed = 3.2125%

Time Step =258
 deltaT = 1e-08 s
 Time = 2.58e-06 s
 Simulation completed = 3.225%

Time Step =259
 deltaT = 1e-08 s
 Time = 2.59e-06 s
Updating material motion ...
 Simulation completed = 3.2375%

Time Step =260
 deltaT = 1e-08 s
 Time = 2.6e-06 s
Post Processing ...
Energy of the system:
 intE = 7.616242e+20
Theoretical kinetic energy of the system:
 kinE = 6.80312e+20
Theoretical potential energy of the system:
 potE = 1.7657387e+21
Theoretical energy of the system:
 theoE = 2.4460507e+21
time           : 2.6e-06
CoG            : 0.00072448372 -0.028718788 0.00073912096
sample solvedW : (1.8045676e-28 -3.0646148e-28 -9.4391034e-28)
sample lm      : (0.57144397 -2027088.4 1.1028277)
sample pR      : (0.57144397 -2027088.4 1.1028277)
sample tC2     : (-0 0 0 362841.9 -1875984.5 -676906.86 -0 0 0)
sample wC      : (-0 0 0 -0 0 0 -0 0 0)
sample lambdaH : 1
sample rhsLm1  : (35597231 2.8190973e+08 25620642)
sample rhsLm2  : (-4.0239914e-25 2.6532604e-19 -1.1816931e-24)
sample rhsLm3  : (0 0 0)
sample rhsLm4  : (-6310710.5 62655318 6313608.8)
sample rhsLm   : (0 0 0)
sample rhsW    : (2.8801078e-21 -1.1250421e-21 -4.5001685e-22)
deltaT         : 1e-08
 Simulation completed = 3.25%

Time Step =261
 deltaT = 1e-08 s
 Time = 2.61e-06 s
Updating material motion ...
 Simulation completed = 3.2625%

Time Step =262
 deltaT = 1e-08 s
 Time = 2.62e-06 s
 Simulation completed = 3.275%

Time Step =263
 deltaT = 1e-08 s
 Time = 2.63e-06 s
Updating material motion ...
 Simulation completed = 3.2875%

Time Step =264
 deltaT = 1e-08 s
 Time = 2.64e-06 s
 Simulation completed = 3.3%

Time Step =265
 deltaT = 1e-08 s
 Time = 2.65e-06 s
Updating material motion ...
 Simulation completed = 3.3125%

Time Step =266
 deltaT = 1e-08 s
 Time = 2.66e-06 s
 Simulation completed = 3.325%

Time Step =267
 deltaT = 1e-08 s
 Time = 2.67e-06 s
Updating material motion ...
 Simulation completed = 3.3375%

Time Step =268
 deltaT = 1e-08 s
 Time = 2.68e-06 s
 Simulation completed = 3.35%

Time Step =269
 deltaT = 1e-08 s
 Time = 2.69e-06 s
Updating material motion ...
 Simulation completed = 3.3625%

Time Step =270
 deltaT = 1e-08 s
 Time = 2.7e-06 s
Post Processing ...
Energy of the system:
 intE = 7.6142108e+20
Theoretical kinetic energy of the system:
 kinE = 6.7935375e+20
Theoretical potential energy of the system:
 potE = 1.8969339e+21
Theoretical energy of the system:
 theoE = 2.5762877e+21
time           : 2.7e-06
CoG            : 0.00077406479 -0.029795123 0.0007887836
sample solvedW : (3.1726188e-28 -3.6091351e-28 -9.7586154e-28)
sample lm      : (7.1590859 -2027027.7 7.827939)
sample pR      : (7.1590859 -2027027.7 7.827939)
sample tC2     : (-0 0 0 362841.9 -1875984.5 -676906.86 -0 0 0)
sample wC      : (-0 0 0 -0 0 0 -0 0 0)
sample lambdaH : 1
sample rhsLm1  : (1.2022466e+08 7.57504e+08 87233264)
sample rhsLm2  : (1.2437522e-24 1.1906366e-19 -4.1127908e-24)
sample rhsLm3  : (0 0 0)
sample rhsLm4  : (-4380480.9 1.8445375e+08 27695510)
sample rhsLm   : (0 0 0)
sample rhsW    : (2.6100977e-21 -9.9003707e-22 -7.2002696e-22)
deltaT         : 1e-08
 Simulation completed = 3.375%

Time Step =271
 deltaT = 1e-08 s
 Time = 2.71e-06 s
Updating material motion ...
 Simulation completed = 3.3875%

Time Step =272
 deltaT = 1e-08 s
 Time = 2.72e-06 s
 Simulation completed = 3.4%

Time Step =273
 deltaT = 1e-08 s
 Time = 2.73e-06 s
Updating material motion ...
 Simulation completed = 3.4125%

Time Step =274
 deltaT = 1e-08 s
 Time = 2.74e-06 s
 Simulation completed = 3.425%

Time Step =275
 deltaT = 1e-08 s
 Time = 2.75e-06 s
Updating material motion ...
 Simulation completed = 3.4375%

Time Step =276
 deltaT = 1e-08 s
 Time = 2.76e-06 s
 Simulation completed = 3.45%

Time Step =277
 deltaT = 1e-08 s
 Time = 2.77e-06 s
Updating material motion ...
 Simulation completed = 3.4625%

Time Step =278
 deltaT = 1e-08 s
 Time = 2.78e-06 s
 Simulation completed = 3.475%

Time Step =279
 deltaT = 1e-08 s
 Time = 2.79e-06 s
Updating material motion ...
 Simulation completed = 3.4875%

Time Step =280
 deltaT = 1e-08 s
 Time = 2.8e-06 s
Post Processing ...
Energy of the system:
 intE = 7.6220618e+20
Theoretical kinetic energy of the system:
 kinE = 6.7831412e+20
Theoretical potential energy of the system:
 potE = 2.0340781e+21
Theoretical energy of the system:
 theoE = 2.7123922e+21
time           : 2.8e-06
CoG            : 0.00082610173 -0.030870675 0.00084065187
sample solvedW : (4.4776677e-28 -4.1716562e-28 -1.0262634e-27)
sample lm      : (27.670482 -2026880.7 27.684104)
sample pR      : (27.670482 -2026880.7 27.684104)
sample tC2     : (-0 0 0 362841.9 -1875984.5 -676906.86 -0 0 0)
sample wC      : (-0 0 0 -0 0 0 -0 0 0)
sample lambdaH : 1
sample rhsLm1  : (3.1591859e+08 1.6935477e+09 2.2954824e+08)
sample rhsLm2  : (8.2834772e-24 -3.886664e-20 -1.0650581e-23)
sample rhsLm3  : (0 0 0)
sample rhsLm4  : (2801802.4 4.148892e+08 74733732)
sample rhsLm   : (0 0 0)
sample rhsW    : (2.6100977e-21 -1.0800404e-21 -1.0800404e-21)
deltaT         : 1e-08
 Simulation completed = 3.5%

Time Step =281
 deltaT = 1e-08 s
 Time = 2.81e-06 s
Updating material motion ...
 Simulation completed = 3.5125%

Time Step =282
 deltaT = 1e-08 s
 Time = 2.82e-06 s
 Simulation completed = 3.525%

Time Step =283
 deltaT = 1e-08 s
 Time = 2.83e-06 s
Updating material motion ...
 Simulation completed = 3.5375%

Time Step =284
 deltaT = 1e-08 s
 Time = 2.84e-06 s
 Simulation completed = 3.55%

Time Step =285
 deltaT = 1e-08 s
 Time = 2.85e-06 s
Updating material motion ...
 Simulation completed = 3.5625%

Time Step =286
 deltaT = 1e-08 s
 Time = 2.86e-06 s
 Simulation completed = 3.575%

Time Step =287
 deltaT = 1e-08 s
 Time = 2.87e-06 s
Updating material motion ...
 Simulation completed = 3.5875%

Time Step =288
 deltaT = 1e-08 s
 Time = 2.88e-06 s
 Simulation completed = 3.6%

Time Step =289
 deltaT = 1e-08 s
 Time = 2.89e-06 s
Updating material motion ...
 Simulation completed = 3.6125%

Time Step =290
 deltaT = 1e-08 s
 Time = 2.9e-06 s
Post Processing ...
Energy of the system:
 intE = 7.6389595e+20
Theoretical kinetic energy of the system:
 kinE = 6.7731267e+20
Theoretical potential energy of the system:
 potE = 2.175932e+21
Theoretical energy of the system:
 theoE = 2.8532447e+21
time           : 2.9e-06
CoG            : 0.00087845297 -0.031946409 0.00089260624
sample solvedW : (5.7107138e-28 -4.6801752e-28 -1.0786904e-27)
sample lm      : (77.390684 -2026578.4 74.527283)
sample pR      : (77.390684 -2026578.4 74.527283)
sample tC2     : (-0 0 0 362841.9 -1875984.5 -676906.86 -0 0 0)
sample wC      : (-0 0 0 -0 0 0 -0 0 0)
sample lambdaH : 1
sample rhsLm1  : (7.0136964e+08 3.304229e+09 5.0857492e+08)
sample rhsLm2  : (2.8813888e-23 -2.0321132e-19 -2.203636e-23)
sample rhsLm3  : (0 0 0)
sample rhsLm4  : (11164791 7.8107146e+08 1.5697055e+08)
sample rhsLm   : (0 0 0)
sample rhsW    : (2.430091e-21 -9.9003707e-22 -1.0350388e-21)
deltaT         : 1e-08
 Simulation completed = 3.625%

Time Step =291
 deltaT = 1e-08 s
 Time = 2.91e-06 s
Updating material motion ...
 Simulation completed = 3.6375%

Time Step =292
 deltaT = 1e-08 s
 Time = 2.92e-06 s
 Simulation completed = 3.65%

Time Step =293
 deltaT = 1e-08 s
 Time = 2.93e-06 s
Updating material motion ...
 Simulation completed = 3.6625%

Time Step =294
 deltaT = 1e-08 s
 Time = 2.94e-06 s
 Simulation completed = 3.675%

Time Step =295
 deltaT = 1e-08 s
 Time = 2.95e-06 s
Updating material motion ...
 Simulation completed = 3.6875%

Time Step =296
 deltaT = 1e-08 s
 Time = 2.96e-06 s
 Simulation completed = 3.7%

Time Step =297
 deltaT = 1e-08 s
 Time = 2.97e-06 s
Updating material motion ...
 Simulation completed = 3.7125%

Time Step =298
 deltaT = 1e-08 s
 Time = 2.98e-06 s
 Simulation completed = 3.725%

Time Step =299
 deltaT = 1e-08 s
 Time = 2.99e-06 s
Updating material motion ...
 Simulation completed = 3.7375%

Time Step =300
 deltaT = 1e-08 s
 Time = 3e-06 s
Post Processing ...
Energy of the system:
 intE = 7.6615419e+20
Theoretical kinetic energy of the system:
 kinE = 6.765561e+20
Theoretical potential energy of the system:
 potE = 2.3208251e+21
Theoretical energy of the system:
 theoE = 2.9973812e+21
time           : 3e-06
CoG            : 0.00092899133 -0.033023104 0.00094256855
sample solvedW : (6.8177553e-28 -5.1234418e-28 -1.1310048e-27)
sample lm      : (179.13719 -2026029.8 168.75365)
sample pR      : (179.13719 -2026029.8 168.75365)
sample tC2     : (-0 0 0 362841.9 -1875984.5 -676906.86 -0 0 0)
sample wC      : (-0 0 0 -0 0 0 -0 0 0)
sample lambdaH : 1
sample rhsLm1  : (1.3651798e+09 5.7726554e+09 9.8553128e+08)
sample rhsLm2  : (7.5144354e-23 -3.4491718e-19 -3.9054872e-23)
sample rhsLm3  : (0 0 0)
sample rhsLm4  : (3717028 1.2790524e+09 2.7449648e+08)
sample rhsLm   : (0 0 0)
sample rhsW    : (2.0700775e-21 -7.2002696e-22 -1.1025413e-21)
deltaT         : 1e-08
 Simulation completed = 3.75%

Time Step =301
 deltaT = 1e-08 s
 Time = 3.01e-06 s
Updating material motion ...
 Simulation completed = 3.7625%

Time Step =302
 deltaT = 1e-08 s
 Time = 3.02e-06 s
 Simulation completed = 3.775%

Time Step =303
 deltaT = 1e-08 s
 Time = 3.03e-06 s
Updating material motion ...
 Simulation completed = 3.7875%

Time Step =304
 deltaT = 1e-08 s
 Time = 3.04e-06 s
 Simulation completed = 3.8%

Time Step =305
 deltaT = 1e-08 s
 Time = 3.05e-06 s
Updating material motion ...
 Simulation completed = 3.8125%

Time Step =306
 deltaT = 1e-08 s
 Time = 3.06e-06 s
 Simulation completed = 3.825%

Time Step =307
 deltaT = 1e-08 s
 Time = 3.07e-06 s
Updating material motion ...
 Simulation completed = 3.8375%

Time Step =308
 deltaT = 1e-08 s
 Time = 3.08e-06 s
 Simulation completed = 3.85%

Time Step =309
 deltaT = 1e-08 s
 Time = 3.09e-06 s
Updating material motion ...
 Simulation completed = 3.8625%

Time Step =310
 deltaT = 1e-08 s
 Time = 3.1e-06 s
Post Processing ...
Energy of the system:
 intE = 7.685289e+20
Theoretical kinetic energy of the system:
 kinE = 6.7623713e+20
Theoretical potential energy of the system:
 potE = 2.4670689e+21
Theoretical energy of the system:
 theoE = 3.1433061e+21
time           : 3.1e-06
CoG            : 0.0009758321 -0.034101288 0.00098871804
sample solvedW : (7.7627907e-28 -5.4384536e-28 -1.1860194e-27)
sample lm      : (361.37511 -2025133.2 335.48341)
sample pR      : (361.37511 -2025133.2 335.48341)
sample tC2     : (-0 0 0 362841.9 -1875984.5 -676906.86 -0 0 0)
sample wC      : (-0 0 0 -0 0 0 -0 0 0)
sample lambdaH : 1
sample rhsLm1  : (2.378077e+09 9.1785468e+09 1.7059369e+09)
sample rhsLm2  : (1.6522572e-22 -4.7656796e-19 -5.7362013e-23)
sample rhsLm3  : (0 0 0)
sample rhsLm4  : (-54966751 1.8580307e+09 4.098086e+08)
sample rhsLm   : (0 0 0)
sample rhsW    : (1.6200607e-21 -4.9501854e-22 -1.3275497e-21)
deltaT         : 1e-08
 Simulation completed = 3.875%

Time Step =311
 deltaT = 1e-08 s
 Time = 3.11e-06 s
Updating material motion ...
 Simulation completed = 3.8875%

Time Step =312
 deltaT = 1e-08 s
 Time = 3.12e-06 s
 Simulation completed = 3.9%

Time Step =313
 deltaT = 1e-08 s
 Time = 3.13e-06 s
Updating material motion ...
 Simulation completed = 3.9125%

Time Step =314
 deltaT = 1e-08 s
 Time = 3.14e-06 s
 Simulation completed = 3.925%

Time Step =315
 deltaT = 1e-08 s
 Time = 3.15e-06 s
Updating material motion ...
 Simulation completed = 3.9375%

Time Step =316
 deltaT = 1e-08 s
 Time = 3.16e-06 s
 Simulation completed = 3.95%

Time Step =317
 deltaT = 1e-08 s
 Time = 3.17e-06 s
Updating material motion ...
 Simulation completed = 3.9625%

Time Step =318
 deltaT = 1e-08 s
 Time = 3.18e-06 s
 Simulation completed = 3.975%

Time Step =319
 deltaT = 1e-08 s
 Time = 3.19e-06 s
Updating material motion ...
 Simulation completed = 3.9875%

Time Step =320
 deltaT = 1e-08 s
 Time = 3.2e-06 s
Post Processing ...
Energy of the system:
 intE = 7.705696e+20
Theoretical kinetic energy of the system:
 kinE = 6.7639329e+20
Theoretical potential energy of the system:
 potE = 2.6133926e+21
Theoretical energy of the system:
 theoE = 3.2897859e+21
time           : 3.2e-06
CoG            : 0.0010175254 -0.035181208 0.001029673
sample solvedW : (8.4828176e-28 -5.6589619e-28 -1.2528469e-27)
sample lm      : (652.71224 -2023794 599.66515)
sample pR      : (652.71224 -2023794 599.66515)
sample tC2     : (-0 0 0 362841.9 -1875984.5 -676906.86 -0 0 0)
sample wC      : (-0 0 0 -0 0 0 -0 0 0)
sample lambdaH : 1
sample rhsLm1  : (3.7546733e+09 1.3434054e+10 2.6723462e+09)
sample rhsLm2  : (3.1489747e-22 -5.7732646e-19 -6.7709639e-23)
sample rhsLm3  : (0 0 0)
sample rhsLm4  : (-2.1729665e+08 2.4181781e+09 5.246813e+08)
sample rhsLm   : (0 0 0)
sample rhsW    : (1.1700438e-21 -3.6001348e-22 -1.1925447e-21)
deltaT         : 1e-08
 Simulation completed = 4%

Time Step =321
 deltaT = 1e-08 s
 Time = 3.21e-06 s
Updating material motion ...
 Simulation completed = 4.0125%

Time Step =322
 deltaT = 1e-08 s
 Time = 3.22e-06 s
 Simulation completed = 4.025%

Time Step =323
 deltaT = 1e-08 s
 Time = 3.23e-06 s
Updating material motion ...
 Simulation completed = 4.0375%

Time Step =324
 deltaT = 1e-08 s
 Time = 3.24e-06 s
 Simulation completed = 4.05%

Time Step =325
 deltaT = 1e-08 s
 Time = 3.25e-06 s
Updating material motion ...
 Simulation completed = 4.0625%

Time Step =326
 deltaT = 1e-08 s
 Time = 3.26e-06 s
 Simulation completed = 4.075%

Time Step =327
 deltaT = 1e-08 s
 Time = 3.27e-06 s
Updating material motion ...
 Simulation completed = 4.0875%

Time Step =328
 deltaT = 1e-08 s
 Time = 3.28e-06 s
 Simulation completed = 4.1%

Time Step =329
 deltaT = 1e-08 s
 Time = 3.29e-06 s
Updating material motion ...
 Simulation completed = 4.1125%

Time Step =330
 deltaT = 1e-08 s
 Time = 3.3e-06 s
Post Processing ...
Energy of the system:
 intE = 7.7201669e+20
Theoretical kinetic energy of the system:
 kinE = 6.7691317e+20
Theoretical potential energy of the system:
 potE = 2.7592526e+21
Theoretical energy of the system:
 theoE = 3.4361658e+21
time           : 3.3e-06
CoG            : 0.0010532029 -0.036262818 0.0010646298
sample solvedW : (8.8878328e-28 -5.8007172e-28 -1.3124741e-27)
sample lm      : (1073.246 -2021948.4 978.70904)
sample pR      : (1073.246 -2021948.4 978.70904)
sample tC2     : (-0 0 0 362841.9 -1875984.5 -676906.86 -0 0 0)
sample wC      : (-0 0 0 -0 0 0 -0 0 0)
sample lambdaH : 1
sample rhsLm1  : (5.4174601e+09 1.8254962e+10 3.8208074e+09)
sample rhsLm2  : (5.44024e-22 -6.753357e-19 -5.0106417e-23)
sample rhsLm3  : (0 0 0)
sample rhsLm4  : (-5.3981445e+08 2.8269521e+09 5.6728082e+08)
sample rhsLm   : (0 0 0)
sample rhsW    : (6.3002359e-22 -1.8000674e-22 -1.2150455e-21)
deltaT         : 1e-08
 Simulation completed = 4.125%

Time Step =331
 deltaT = 1e-08 s
 Time = 3.31e-06 s
Updating material motion ...
 Simulation completed = 4.1375%

Time Step =332
 deltaT = 1e-08 s
 Time = 3.32e-06 s
 Simulation completed = 4.15%

Time Step =333
 deltaT = 1e-08 s
 Time = 3.33e-06 s
Updating material motion ...
 Simulation completed = 4.1625%

Time Step =334
 deltaT = 1e-08 s
 Time = 3.34e-06 s
 Simulation completed = 4.175%

Time Step =335
 deltaT = 1e-08 s
 Time = 3.35e-06 s
Updating material motion ...
 Simulation completed = 4.1875%

Time Step =336
 deltaT = 1e-08 s
 Time = 3.36e-06 s
 Simulation completed = 4.2%

Time Step =337
 deltaT = 1e-08 s
 Time = 3.37e-06 s
Updating material motion ...
 Simulation completed = 4.2125%

Time Step =338
 deltaT = 1e-08 s
 Time = 3.38e-06 s
 Simulation completed = 4.225%

Time Step =339
 deltaT = 1e-08 s
 Time = 3.39e-06 s
Updating material motion ...
 Simulation completed = 4.2375%

Time Step =340
 deltaT = 1e-08 s
 Time = 3.4e-06 s
Post Processing ...
Energy of the system:
 intE = 7.7281339e+20
Theoretical kinetic energy of the system:
 kinE = 6.7749949e+20
Theoretical potential energy of the system:
 potE = 2.904915e+21
Theoretical energy of the system:
 theoE = 3.5824145e+21
time           : 3.4e-06
CoG            : 0.0010826713 -0.037345785 0.0010934507
sample solvedW : (9.0858402e-28 -5.7872167e-28 -1.3660261e-27)
sample lm      : (1625.0197 -2019583.5 1474.7852)
sample pR      : (1625.0197 -2019583.5 1474.7852)
sample tC2     : (-0 0 0 362841.9 -1875984.5 -676906.86 -0 0 0)
sample wC      : (-0 0 0 -0 0 0 -0 0 0)
sample lambdaH : 1
sample rhsLm1  : (7.1803471e+09 2.3184106e+10 5.0135537e+09)
sample rhsLm2  : (8.3812426e-22 -7.3939397e-19 6.0840276e-24)
sample rhsLm3  : (0 0 0)
sample rhsLm4  : (-1.0591937e+09 2.9504288e+09 4.9079522e+08)
sample rhsLm   : (0 0 0)
sample rhsW    : (2.7001011e-22 1.3500506e-22 -1.1025413e-21)
deltaT         : 1e-08
 Simulation completed = 4.25%

Time Step =341
 deltaT = 1e-08 s
 Time = 3.41e-06 s
Updating material motion ...
 Simulation completed = 4.2625%

Time Step =342
 deltaT = 1e-08 s
 Time = 3.42e-06 s
 Simulation completed = 4.275%

Time Step =343
 deltaT = 1e-08 s
 Time = 3.43e-06 s
Updating material motion ...
 Simulation completed = 4.2875%

Time Step =344
 deltaT = 1e-08 s
 Time = 3.44e-06 s
 Simulation completed = 4.3%

Time Step =345
 deltaT = 1e-08 s
 Time = 3.45e-06 s
Updating material motion ...
 Simulation completed = 4.3125%

Time Step =346
 deltaT = 1e-08 s
 Time = 3.46e-06 s
 Simulation completed = 4.325%

Time Step =347
 deltaT = 1e-08 s
 Time = 3.47e-06 s
Updating material motion ...
 Simulation completed = 4.3375%

Time Step =348
 deltaT = 1e-08 s
 Time = 3.48e-06 s
 Simulation completed = 4.35%

Time Step =349
 deltaT = 1e-08 s
 Time = 3.49e-06 s
Updating material motion ...
 Simulation completed = 4.3625%

Time Step =350
 deltaT = 1e-08 s
 Time = 3.5e-06 s
Post Processing ...
Energy of the system:
 intE = 7.7304306e+20
Theoretical kinetic energy of the system:
 kinE = 6.7772469e+20
Theoretical potential energy of the system:
 potE = 3.0512884e+21
Theoretical energy of the system:
 theoE = 3.7290131e+21
time           : 3.5e-06
CoG            : 0.0011064435 -0.038429505 0.001116693
sample solvedW : (9.1578429e-28 -5.6499616e-28 -1.4120404e-27)
sample lm      : (2285.1193 -2016749.9 2069.8334)
sample pR      : (2285.1193 -2016749.9 2069.8334)
sample tC2     : (-0 0 0 362841.9 -1875984.5 -676906.86 -0 0 0)
sample wC      : (-0 0 0 -0 0 0 -0 0 0)
sample lambdaH : 1
sample rhsLm1  : (8.765766e+09 2.766367e+10 6.0564635e+09)
sample rhsLm2  : (1.1723779e-21 -7.9031562e-19 1.2211197e-22)
sample rhsLm3  : (0 0 0)
sample rhsLm4  : (-1.764259e+09 2.6887305e+09 2.7812919e+08)
sample rhsLm   : (0 0 0)
sample rhsW    : (-2.7001011e-22 4.0501517e-22 -8.3253117e-22)
deltaT         : 1e-08
 Simulation completed = 4.375%

Time Step =351
 deltaT = 1e-08 s
 Time = 3.51e-06 s
Updating material motion ...
 Simulation completed = 4.3875%

Time Step =352
 deltaT = 1e-08 s
 Time = 3.52e-06 s
 Simulation completed = 4.4%

Time Step =353
 deltaT = 1e-08 s
 Time = 3.53e-06 s
Updating material motion ...
 Simulation completed = 4.4125%

Time Step =354
 deltaT = 1e-08 s
 Time = 3.54e-06 s
 Simulation completed = 4.425%

Time Step =355
 deltaT = 1e-08 s
 Time = 3.55e-06 s
Updating material motion ...
 Simulation completed = 4.4375%

Time Step =356
 deltaT = 1e-08 s
 Time = 3.56e-06 s
 Simulation completed = 4.45%

Time Step =357
 deltaT = 1e-08 s
 Time = 3.57e-06 s
Updating material motion ...
 Simulation completed = 4.4625%

Time Step =358
 deltaT = 1e-08 s
 Time = 3.58e-06 s
 Simulation completed = 4.475%

Time Step =359
 deltaT = 1e-08 s
 Time = 3.59e-06 s
Updating material motion ...
 Simulation completed = 4.4875%

Time Step =360
 deltaT = 1e-08 s
 Time = 3.6e-06 s
Post Processing ...
Energy of the system:
 intE = 7.728861e+20
Theoretical kinetic energy of the system:
 kinE = 6.7720515e+20
Theoretical potential energy of the system:
 potE = 3.1995848e+21
Theoretical energy of the system:
 theoE = 3.87679e+21
time           : 3.6e-06
CoG            : 0.0011256954 -0.039513145 0.0011355627
sample solvedW : (8.9508352e-28 -5.3822015e-28 -1.4436541e-27)
sample lm      : (3004.7887 -2013561.9 2725.8471)
sample pR      : (3004.7887 -2013561.9 2725.8471)
sample tC2     : (-0 0 0 362841.9 -1875984.5 -676906.86 -0 0 0)
sample wC      : (-0 0 0 -0 0 0 -0 0 0)
sample lambdaH : 1
sample rhsLm1  : (9.8574222e+09 3.1133344e+10 6.7397247e+09)
sample rhsLm2  : (1.4782626e-21 -8.0083927e-19 2.8205748e-22)
sample rhsLm3  : (0 0 0)
sample rhsLm4  : (-2.5766638e+09 2.0025869e+09 -38813424)
sample rhsLm   : (0 0 0)
sample rhsW    : (-7.2002696e-22 7.2002696e-22 -5.4002022e-22)
deltaT         : 1e-08
 Simulation completed = 4.5%

Time Step =361
 deltaT = 1e-08 s
 Time = 3.61e-06 s
Updating material motion ...
 Simulation completed = 4.5125%

Time Step =362
 deltaT = 1e-08 s
 Time = 3.62e-06 s
 Simulation completed = 4.525%

Time Step =363
 deltaT = 1e-08 s
 Time = 3.63e-06 s
Updating material motion ...
 Simulation completed = 4.5375%

Time Step =364
 deltaT = 1e-08 s
 Time = 3.64e-06 s
 Simulation completed = 4.55%

Time Step =365
 deltaT = 1e-08 s
 Time = 3.65e-06 s
Updating material motion ...
 Simulation completed = 4.5625%

Time Step =366
 deltaT = 1e-08 s
 Time = 3.66e-06 s
 Simulation completed = 4.575%

Time Step =367
 deltaT = 1e-08 s
 Time = 3.67e-06 s
Updating material motion ...
 Simulation completed = 4.5875%

Time Step =368
 deltaT = 1e-08 s
 Time = 3.68e-06 s
 Simulation completed = 4.6%

Time Step =369
 deltaT = 1e-08 s
 Time = 3.69e-06 s
Updating material motion ...
 Simulation completed = 4.6125%

Time Step =370
 deltaT = 1e-08 s
 Time = 3.7e-06 s
Post Processing ...
Energy of the system:
 intE = 7.7254989e+20
Theoretical kinetic energy of the system:
 kinE = 6.7575761e+20
Theoretical potential energy of the system:
 potE = 3.3509481e+21
Theoretical energy of the system:
 theoE = 4.0267057e+21
time           : 3.7e-06
CoG            : 0.0011421445 -0.04059573 0.0011517878
sample solvedW : (8.5278193e-28 -4.9591857e-28 -1.4609797e-27)
sample lm      : (3716.0135 -2010186.6 3390.9716)
sample pR      : (3716.0135 -2010186.6 3390.9716)
sample tC2     : (-0 0 0 362841.9 -1875984.5 -676906.86 -0 0 0)
sample wC      : (-0 0 0 -0 0 0 -0 0 0)
sample lambdaH : 1
sample rhsLm1  : (1.0174486e+10 3.3122857e+10 6.8882123e+09)
sample rhsLm2  : (1.7456693e-21 -8.1271217e-19 5.1348494e-22)
sample rhsLm3  : (0 0 0)
sample rhsLm4  : (-3.3529707e+09 9.2290963e+08 -3.779001e+08)
sample rhsLm   : (0 0 0)
sample rhsW    : (-9.000337e-22 1.0350388e-21 -4.5001685e-23)
deltaT         : 1e-08
 Simulation completed = 4.625%

Time Step =371
 deltaT = 1e-08 s
 Time = 3.71e-06 s
Updating material motion ...
 Simulation completed = 4.6375%

Time Step =372
 deltaT = 1e-08 s
 Time = 3.72e-06 s
 Simulation completed = 4.65%

Time Step =373
 deltaT = 1e-08 s
 Time = 3.73e-06 s
Updating material motion ...
 Simulation completed = 4.6625%

Time Step =374
 deltaT = 1e-08 s
 Time = 3.74e-06 s
 Simulation completed = 4.675%

Time Step =375
 deltaT = 1e-08 s
 Time = 3.75e-06 s
Updating material motion ...
 Simulation completed = 4.6875%

Time Step =376
 deltaT = 1e-08 s
 Time = 3.76e-06 s
 Simulation completed = 4.7%

Time Step =377
 deltaT = 1e-08 s
 Time = 3.77e-06 s
Updating material motion ...
 Simulation completed = 4.7125%

Time Step =378
 deltaT = 1e-08 s
 Time = 3.78e-06 s
 Simulation completed = 4.725%

Time Step =379
 deltaT = 1e-08 s
 Time = 3.79e-06 s
Updating material motion ...
 Simulation completed = 4.7375%

Time Step =380
 deltaT = 1e-08 s
 Time = 3.8e-06 s
Post Processing ...
Energy of the system:
 intE = 7.7214151e+20
Theoretical kinetic energy of the system:
 kinE = 6.7342502e+20
Theoretical potential energy of the system:
 potE = 3.5061849e+21
Theoretical energy of the system:
 theoE = 4.17961e+21
time           : 3.8e-06
CoG            : 0.0011578524 -0.041676255 0.0011674164
sample solvedW : (8.0148001e-28 -4.4371661e-28 -1.4505168e-27)
sample lm      : (4343.9354 -2006824.3 4009.1637)
sample pR      : (4343.9354 -2006824.3 4009.1637)
sample tC2     : (-0 0 0 362841.9 -1875984.5 -676906.86 -0 0 0)
sample wC      : (-0 0 0 -0 0 0 -0 0 0)
sample lambdaH : 1
sample rhsLm1  : (9.5404815e+09 3.3315238e+10 6.4009796e+09)
sample rhsLm2  : (1.924277e-21 -8.0382173e-19 7.8396394e-22)
sample rhsLm3  : (0 0 0)
sample rhsLm4  : (-3.9138772e+09 -4.5588255e+08 -6.3025819e+08)
sample rhsLm   : (0 0 0)
sample rhsW    : (-9.000337e-22 1.0800404e-21 4.2751601e-22)
deltaT         : 1e-08
 Simulation completed = 4.75%

Time Step =381
 deltaT = 1e-08 s
 Time = 3.81e-06 s
Updating material motion ...
 Simulation completed = 4.7625%

Time Step =382
 deltaT = 1e-08 s
 Time = 3.82e-06 s
 Simulation completed = 4.775%

Time Step =383
 deltaT = 1e-08 s
 Time = 3.83e-06 s
Updating material motion ...
 Simulation completed = 4.7875%

Time Step =384
 deltaT = 1e-08 s
 Time = 3.84e-06 s
 Simulation completed = 4.8%

Time Step =385
 deltaT = 1e-08 s
 Time = 3.85e-06 s
Updating material motion ...
 Simulation completed = 4.8125%

Time Step =386
 deltaT = 1e-08 s
 Time = 3.86e-06 s
 Simulation completed = 4.825%

Time Step =387
 deltaT = 1e-08 s
 Time = 3.87e-06 s
Updating material motion ...
 Simulation completed = 4.8375%

Time Step =388
 deltaT = 1e-08 s
 Time = 3.88e-06 s
 Simulation completed = 4.85%

Time Step =389
 deltaT = 1e-08 s
 Time = 3.89e-06 s
Updating material motion ...
 Simulation completed = 4.8625%

Time Step =390
 deltaT = 1e-08 s
 Time = 3.9e-06 s
Post Processing ...
Energy of the system:
 intE = 7.7160737e+20
Theoretical kinetic energy of the system:
 kinE = 6.7043007e+20
Theoretical potential energy of the system:
 potE = 3.6656873e+21
Theoretical energy of the system:
 theoE = 4.3361174e+21
time           : 3.9e-06
CoG            : 0.0011749754 -0.0427538 0.0011845697
sample solvedW : (7.4027772e-28 -3.8138928e-28 -1.4248659e-27)
sample lm      : (4820.6193 -2003686 4529.0462)
sample pR      : (4820.6193 -2003686 4529.0462)
sample tC2     : (-0 0 0 362841.9 -1875984.5 -676906.86 -0 0 0)
sample wC      : (-0 0 0 -0 0 0 -0 0 0)
sample lambdaH : 1
sample rhsLm1  : (7.9191235e+09 3.1576113e+10 5.2622798e+09)
sample rhsLm2  : (1.9639765e-21 -7.8546796e-19 1.0662082e-21)
sample rhsLm3  : (0 0 0)
sample rhsLm4  : (-4.0943827e+09 -1.9909523e+09 -7.035806e+08)
sample rhsLm   : (0 0 0)
sample rhsW    : (-1.2600472e-21 1.3500506e-21 5.8502191e-22)
deltaT         : 1e-08
 Simulation completed = 4.875%

Time Step =391
 deltaT = 1e-08 s
 Time = 3.91e-06 s
Updating material motion ...
 Simulation completed = 4.8875%

Time Step =392
 deltaT = 1e-08 s
 Time = 3.92e-06 s
 Simulation completed = 4.9%

Time Step =393
 deltaT = 1e-08 s
 Time = 3.93e-06 s
Updating material motion ...
 Simulation completed = 4.9125%

Time Step =394
 deltaT = 1e-08 s
 Time = 3.94e-06 s
 Simulation completed = 4.925%

Time Step =395
 deltaT = 1e-08 s
 Time = 3.95e-06 s
Updating material motion ...
 Simulation completed = 4.9375%

Time Step =396
 deltaT = 1e-08 s
 Time = 3.96e-06 s
 Simulation completed = 4.95%

Time Step =397
 deltaT = 1e-08 s
 Time = 3.97e-06 s
Updating material motion ...
 Simulation completed = 4.9625%

Time Step =398
 deltaT = 1e-08 s
 Time = 3.98e-06 s
 Simulation completed = 4.975%

Time Step =399
 deltaT = 1e-08 s
 Time = 3.99e-06 s
Updating material motion ...
 Simulation completed = 4.9875%

Time Step =400
 deltaT = 1e-08 s
 Time = 4e-06 s
Post Processing ...
Energy of the system:
 intE = 7.7078893e+20
Theoretical kinetic energy of the system:
 kinE = 6.6709394e+20
Theoretical potential energy of the system:
 potE = 3.8295356e+21
Theoretical energy of the system:
 theoE = 4.4966295e+21
time           : 4e-06
CoG            : 0.0011955101 -0.043827611 0.0012051934
sample solvedW : (6.7457526e-28 -3.1073664e-28 -1.3827893e-27)
sample lm      : (5094.702 -2000970.6 4907.5407)
sample pR      : (5094.702 -2000970.6 4907.5407)
sample tC2     : (-0 0 0 362841.9 -1875984.5 -676906.86 -0 0 0)
sample wC      : (-0 0 0 -0 0 0 -0 0 0)
sample lambdaH : 1
sample rhsLm1  : (5.4026682e+09 2.7962214e+10 3.5200413e+09)
sample rhsLm2  : (1.8127369e-21 -7.3746796e-19 1.2772843e-21)
sample rhsLm3  : (0 0 0)
sample rhsLm4  : (-3.7973588e+09 -3.5064236e+09 -5.6849852e+08)
sample rhsLm   : (0 0 0)
sample rhsW    : (-1.2600472e-21 1.5300573e-21 1.147543e-21)
deltaT         : 1e-08
 Simulation completed = 5%

Time Step =401
 deltaT = 1e-08 s
 Time = 4.01e-06 s
Updating material motion ...
 Simulation completed = 5.0125%

[...]
sample wC      : (-0 0 0 -0 0 0 -0 0 0)
sample lambdaH : 1
sample rhsLm1  : (4.1101281e+09 -5.9822769e+09 6.6749775e+09)
sample rhsLm2  : (-4.1275353e-22 1.3491469e-20 -3.1800429e-22)
sample rhsLm3  : (0 0 0)
sample rhsLm4  : (-3.1120817e+09 1.9775607e+10 -5.6480499e+09)
sample rhsLm   : (0 0 0)
sample rhsW    : (5.4002022e-22 4.0501517e-22 1.0575396e-21)
deltaT         : 1e-08
 Simulation completed = 98.75%

Time Step =7901
 deltaT = 1e-08 s
 Time = 7.901e-05 s
Updating material motion ...
 Simulation completed = 98.7625%

Time Step =7902
 deltaT = 1e-08 s
 Time = 7.902e-05 s
 Simulation completed = 98.775%

Time Step =7903
 deltaT = 1e-08 s
 Time = 7.903e-05 s
Updating material motion ...
 Simulation completed = 98.7875%

Time Step =7904
 deltaT = 1e-08 s
 Time = 7.904e-05 s
 Simulation completed = 98.8%

Time Step =7905
 deltaT = 1e-08 s
 Time = 7.905e-05 s
Updating material motion ...
 Simulation completed = 98.8125%

Time Step =7906
 deltaT = 1e-08 s
 Time = 7.906e-05 s
 Simulation completed = 98.825%

Time Step =7907
 deltaT = 1e-08 s
 Time = 7.907e-05 s
Updating material motion ...
 Simulation completed = 98.8375%

Time Step =7908
 deltaT = 1e-08 s
 Time = 7.908e-05 s
 Simulation completed = 98.85%

Time Step =7909
 deltaT = 1e-08 s
 Time = 7.909e-05 s
Updating material motion ...
 Simulation completed = 98.8625%

Time Step =7910
 deltaT = 1e-08 s
 Time = 7.91e-05 s
Post Processing ...
Energy of the system:
 intE = 7.8947984e+20
Theoretical kinetic energy of the system:
 kinE = 7.1871444e+17
Theoretical potential energy of the system:
 potE = 1.542154e+23
Theoretical energy of the system:
 theoE = 1.5421612e+23
time           : 7.91e-05
CoG            : 0.020508762 -0.3992287 0.019906455
sample solvedW : (7.7672908e-28 -9.2253454e-29 1.0696901e-27)
sample lm      : (-3174.4008 52265.064 -3116.323)
sample pR      : (-3174.4008 52265.064 -3116.323)
sample tC2     : (-0 0 0 362841.9 -1875984.5 -676906.86 -0 0 0)
sample wC      : (-0 0 0 -0 0 0 -0 0 0)
sample lambdaH : 1
sample rhsLm1  : (3.8740245e+09 -6.0569479e+09 6.3271059e+09)
sample rhsLm2  : (-4.8716184e-22 1.2296742e-20 -2.4889295e-22)
sample rhsLm3  : (0 0 0)
sample rhsLm4  : (-2.9579604e+09 1.926024e+10 -5.3477094e+09)
sample rhsLm   : (0 0 0)
sample rhsW    : (6.3002359e-22 1.3500506e-22 1.0800404e-21)
deltaT         : 1e-08
 Simulation completed = 98.875%

Time Step =7911
 deltaT = 1e-08 s
 Time = 7.911e-05 s
Updating material motion ...
 Simulation completed = 98.8875%

Time Step =7912
 deltaT = 1e-08 s
 Time = 7.912e-05 s
 Simulation completed = 98.9%

Time Step =7913
 deltaT = 1e-08 s
 Time = 7.913e-05 s
Updating material motion ...
 Simulation completed = 98.9125%

Time Step =7914
 deltaT = 1e-08 s
 Time = 7.914e-05 s
 Simulation completed = 98.925%

Time Step =7915
 deltaT = 1e-08 s
 Time = 7.915e-05 s
Updating material motion ...
 Simulation completed = 98.9375%

Time Step =7916
 deltaT = 1e-08 s
 Time = 7.916e-05 s
 Simulation completed = 98.95%

Time Step =7917
 deltaT = 1e-08 s
 Time = 7.917e-05 s
Updating material motion ...
 Simulation completed = 98.9625%

Time Step =7918
 deltaT = 1e-08 s
 Time = 7.918e-05 s
 Simulation completed = 98.975%

Time Step =7919
 deltaT = 1e-08 s
 Time = 7.919e-05 s
Updating material motion ...
 Simulation completed = 98.9875%

Time Step =7920
 deltaT = 1e-08 s
 Time = 7.92e-05 s
Post Processing ...
Energy of the system:
 intE = 7.8948561e+20
Theoretical kinetic energy of the system:
 kinE = 7.2207267e+17
Theoretical potential energy of the system:
 potE = 1.542013e+23
Theoretical energy of the system:
 theoE = 1.5420202e+23
time           : 7.92e-05
CoG            : 0.020507178 -0.39920217 0.019904856
sample solvedW : (8.037301e-28 -9.1353421e-29 1.1269547e-27)
sample lm      : (-3089.6707 53557.346 -3023.9532)
sample pR      : (-3089.6707 53557.346 -3023.9532)
sample tC2     : (-0 0 0 362841.9 -1875984.5 -676906.86 -0 0 0)
sample wC      : (-0 0 0 -0 0 0 -0 0 0)
sample lambdaH : 1
sample rhsLm1  : (3.5477405e+09 -6.1284766e+09 5.9000108e+09)
sample rhsLm2  : (-5.6356657e-22 1.0884118e-20 -1.8994343e-22)
sample rhsLm3  : (0 0 0)
sample rhsLm4  : (-2.7777294e+09 1.8775714e+10 -5.0418756e+09)
sample rhsLm   : (0 0 0)
sample rhsW    : (3.6001348e-22 -2.2500843e-22 1.1700438e-21)
deltaT         : 1e-08
 Simulation completed = 99%

Time Step =7921
 deltaT = 1e-08 s
 Time = 7.921e-05 s
Updating material motion ...
 Simulation completed = 99.0125%

Time Step =7922
 deltaT = 1e-08 s
 Time = 7.922e-05 s
 Simulation completed = 99.025%

Time Step =7923
 deltaT = 1e-08 s
 Time = 7.923e-05 s
Updating material motion ...
 Simulation completed = 99.0375%

Time Step =7924
 deltaT = 1e-08 s
 Time = 7.924e-05 s
 Simulation completed = 99.05%

Time Step =7925
 deltaT = 1e-08 s
 Time = 7.925e-05 s
Updating material motion ...
 Simulation completed = 99.0625%

Time Step =7926
 deltaT = 1e-08 s
 Time = 7.926e-05 s
 Simulation completed = 99.075%

Time Step =7927
 deltaT = 1e-08 s
 Time = 7.927e-05 s
Updating material motion ...
 Simulation completed = 99.0875%

Time Step =7928
 deltaT = 1e-08 s
 Time = 7.928e-05 s
 Simulation completed = 99.1%

Time Step =7929
 deltaT = 1e-08 s
 Time = 7.929e-05 s
Updating material motion ...
 Simulation completed = 99.1125%

Time Step =7930
 deltaT = 1e-08 s
 Time = 7.93e-05 s
Post Processing ...
Energy of the system:
 intE = 7.8949145e+20
Theoretical kinetic energy of the system:
 kinE = 7.2360855e+17
Theoretical potential energy of the system:
 potE = 1.5418661e+23
Theoretical energy of the system:
 theoE = 1.5418734e+23
time           : 7.93e-05
CoG            : 0.020505587 -0.39917529 0.019903253
sample solvedW : (8.1858065e-28 -1.122792e-28 1.1751065e-27)
sample lm      : (-3021.8477 54795.379 -2946.4073)
sample pR      : (-3021.8477 54795.379 -2946.4073)
sample tC2     : (-0 0 0 362841.9 -1875984.5 -676906.86 -0 0 0)
sample wC      : (-0 0 0 -0 0 0 -0 0 0)
sample lambdaH : 1
sample rhsLm1  : (3.1621959e+09 -6.2006587e+09 5.4220638e+09)
sample rhsLm2  : (-5.9396297e-22 8.9923189e-21 -1.1932205e-22)
sample rhsLm3  : (0 0 0)
sample rhsLm4  : (-2.5808657e+09 1.8317272e+10 -4.73557e+09)
sample rhsLm   : (0 0 0)
sample rhsW    : (9.000337e-23 -6.3002359e-22 8.5503202e-22)
deltaT         : 1e-08
 Simulation completed = 99.125%

Time Step =7931
 deltaT = 1e-08 s
 Time = 7.931e-05 s
Updating material motion ...
 Simulation completed = 99.1375%

Time Step =7932
 deltaT = 1e-08 s
 Time = 7.932e-05 s
 Simulation completed = 99.15%

Time Step =7933
 deltaT = 1e-08 s
 Time = 7.933e-05 s
Updating material motion ...
 Simulation completed = 99.1625%

Time Step =7934
 deltaT = 1e-08 s
 Time = 7.934e-05 s
 Simulation completed = 99.175%

Time Step =7935
 deltaT = 1e-08 s
 Time = 7.935e-05 s
Updating material motion ...
 Simulation completed = 99.1875%

Time Step =7936
 deltaT = 1e-08 s
 Time = 7.936e-05 s
 Simulation completed = 99.2%

Time Step =7937
 deltaT = 1e-08 s
 Time = 7.937e-05 s
Updating material motion ...
 Simulation completed = 99.2125%

Time Step =7938
 deltaT = 1e-08 s
 Time = 7.938e-05 s
 Simulation completed = 99.225%

Time Step =7939
 deltaT = 1e-08 s
 Time = 7.939e-05 s
Updating material motion ...
 Simulation completed = 99.2375%

Time Step =7940
 deltaT = 1e-08 s
 Time = 7.94e-05 s
Post Processing ...
Energy of the system:
 intE = 7.8949755e+20
Theoretical kinetic energy of the system:
 kinE = 7.2345042e+17
Theoretical potential energy of the system:
 potE = 1.5417133e+23
Theoretical energy of the system:
 theoE = 1.5417206e+23
time           : 7.94e-05
CoG            : 0.020503986 -0.39914812 0.019901644
sample solvedW : (8.118304e-28 -1.5570583e-28 1.2161705e-27)
sample lm      : (-2974.1709 55981.177 -2887.6617)
sample pR      : (-2974.1709 55981.177 -2887.6617)
sample tC2     : (-0 0 0 362841.9 -1875984.5 -676906.86 -0 0 0)
sample wC      : (-0 0 0 -0 0 0 -0 0 0)
sample lambdaH : 1
sample rhsLm1  : (2.7481032e+09 -6.2820548e+09 4.9201408e+09)
sample rhsLm2  : (-6.0062337e-22 6.6158126e-21 -3.7439292e-23)
sample rhsLm3  : (0 0 0)
sample rhsLm4  : (-2.378059e+09 1.7883033e+10 -4.4349795e+09)
sample rhsLm   : (0 0 0)
sample rhsW    : (-3.6001348e-22 -1.1250421e-21 8.7753286e-22)
deltaT         : 1e-08
 Simulation completed = 99.25%

Time Step =7941
 deltaT = 1e-08 s
 Time = 7.941e-05 s
Updating material motion ...
 Simulation completed = 99.2625%

Time Step =7942
 deltaT = 1e-08 s
 Time = 7.942e-05 s
 Simulation completed = 99.275%

Time Step =7943
 deltaT = 1e-08 s
 Time = 7.943e-05 s
Updating material motion ...
 Simulation completed = 99.2875%

Time Step =7944
 deltaT = 1e-08 s
 Time = 7.944e-05 s
 Simulation completed = 99.3%

Time Step =7945
 deltaT = 1e-08 s
 Time = 7.945e-05 s
Updating material motion ...
 Simulation completed = 99.3125%

Time Step =7946
 deltaT = 1e-08 s
 Time = 7.946e-05 s
 Simulation completed = 99.325%

Time Step =7947
 deltaT = 1e-08 s
 Time = 7.947e-05 s
Updating material motion ...
 Simulation completed = 99.3375%

Time Step =7948
 deltaT = 1e-08 s
 Time = 7.948e-05 s
 Simulation completed = 99.35%

Time Step =7949
 deltaT = 1e-08 s
 Time = 7.949e-05 s
Updating material motion ...
 Simulation completed = 99.3625%

Time Step =7950
 deltaT = 1e-08 s
 Time = 7.95e-05 s
Post Processing ...
Energy of the system:
 intE = 7.8950409e+20
Theoretical kinetic energy of the system:
 kinE = 7.2171207e+17
Theoretical potential energy of the system:
 potE = 1.5415546e+23
Theoretical energy of the system:
 theoE = 1.5415618e+23
time           : 7.95e-05
CoG            : 0.020502373 -0.39912068 0.019900027
sample solvedW : (7.8572942e-28 -2.1915821e-28 1.2573471e-27)
sample lm      : (-2948.0344 57115.779 -2849.7869)
sample pR      : (-2948.0344 57115.779 -2849.7869)
sample tC2     : (-0 0 0 362841.9 -1875984.5 -676906.86 -0 0 0)
sample wC      : (-0 0 0 -0 0 0 -0 0 0)
sample lambdaH : 1
sample rhsLm1  : (2.3319926e+09 -6.3821432e+09 4.4175804e+09)
sample rhsLm2  : (-6.0803535e-22 4.275751e-21 3.0191071e-23)
sample rhsLm3  : (0 0 0)
sample rhsLm4  : (-2.1790395e+09 1.7473506e+10 -4.1458811e+09)
sample rhsLm   : (0 0 0)
sample rhsW    : (-8.1003033e-22 -1.4400539e-21 8.1003033e-22)
deltaT         : 1e-08
 Simulation completed = 99.375%

Time Step =7951
 deltaT = 1e-08 s
 Time = 7.951e-05 s
Updating material motion ...
 Simulation completed = 99.3875%

Time Step =7952
 deltaT = 1e-08 s
 Time = 7.952e-05 s
 Simulation completed = 99.4%

Time Step =7953
 deltaT = 1e-08 s
 Time = 7.953e-05 s
Updating material motion ...
 Simulation completed = 99.4125%

Time Step =7954
 deltaT = 1e-08 s
 Time = 7.954e-05 s
 Simulation completed = 99.425%

Time Step =7955
 deltaT = 1e-08 s
 Time = 7.955e-05 s
Updating material motion ...
 Simulation completed = 99.4375%

Time Step =7956
 deltaT = 1e-08 s
 Time = 7.956e-05 s
 Simulation completed = 99.45%

Time Step =7957
 deltaT = 1e-08 s
 Time = 7.957e-05 s
Updating material motion ...
 Simulation completed = 99.4625%

Time Step =7958
 deltaT = 1e-08 s
 Time = 7.958e-05 s
 Simulation completed = 99.475%

Time Step =7959
 deltaT = 1e-08 s
 Time = 7.959e-05 s
Updating material motion ...
 Simulation completed = 99.4875%

Time Step =7960
 deltaT = 1e-08 s
 Time = 7.96e-05 s
Post Processing ...
Energy of the system:
 intE = 7.8951123e+20
Theoretical kinetic energy of the system:
 kinE = 7.1848993e+17
Theoretical potential energy of the system:
 potE = 1.54139e+23
Theoretical energy of the system:
 theoE = 1.5413972e+23
time           : 7.96e-05
CoG            : 0.020500747 -0.39909301 0.019898402
sample solvedW : (7.371276e-28 -3.0196131e-28 1.2908733e-27)
sample lm      : (-2943.2987 58199.361 -2833.1951)
sample pR      : (-2943.2987 58199.361 -2833.1951)
sample tC2     : (-0 0 0 362841.9 -1875984.5 -676906.86 -0 0 0)
sample wC      : (-0 0 0 -0 0 0 -0 0 0)
sample lambdaH : 1
sample rhsLm1  : (1.9350125e+09 -6.5103681e+09 3.9344125e+09)
sample rhsLm2  : (-5.5915363e-22 1.395324e-21 1.1221005e-22)
sample rhsLm3  : (0 0 0)
sample rhsLm4  : (-1.9908719e+09 1.7089357e+10 -3.8724184e+09)
sample rhsLm   : (0 0 0)
sample rhsW    : (-1.2600472e-21 -1.8000674e-21 6.0752275e-22)
deltaT         : 1e-08
 Simulation completed = 99.5%

Time Step =7961
 deltaT = 1e-08 s
 Time = 7.961e-05 s
Updating material motion ...
 Simulation completed = 99.5125%

Time Step =7962
 deltaT = 1e-08 s
 Time = 7.962e-05 s
 Simulation completed = 99.525%

Time Step =7963
 deltaT = 1e-08 s
 Time = 7.963e-05 s
Updating material motion ...
 Simulation completed = 99.5375%

Time Step =7964
 deltaT = 1e-08 s
 Time = 7.964e-05 s
 Simulation completed = 99.55%

Time Step =7965
 deltaT = 1e-08 s
 Time = 7.965e-05 s
Updating material motion ...
 Simulation completed = 99.5625%

Time Step =7966
 deltaT = 1e-08 s
 Time = 7.966e-05 s
 Simulation completed = 99.575%

Time Step =7967
 deltaT = 1e-08 s
 Time = 7.967e-05 s
Updating material motion ...
 Simulation completed = 99.5875%

Time Step =7968
 deltaT = 1e-08 s
 Time = 7.968e-05 s
 Simulation completed = 99.6%

Time Step =7969
 deltaT = 1e-08 s
 Time = 7.969e-05 s
Updating material motion ...
 Simulation completed = 99.6125%

Time Step =7970
 deltaT = 1e-08 s
 Time = 7.97e-05 s
Post Processing ...
Energy of the system:
 intE = 7.8951909e+20
Theoretical kinetic energy of the system:
 kinE = 7.1386248e+17
Theoretical potential energy of the system:
 potE = 1.5412195e+23
Theoretical energy of the system:
 theoE = 1.5412266e+23
time           : 7.97e-05
CoG            : 0.020499105 -0.39906516 0.019896766
sample solvedW : (6.543245e-28 -4.0006498e-28 1.3166368e-27)
sample lm      : (-2958.4868 59231.06 -2836.7337)
sample pR      : (-2958.4868 59231.06 -2836.7337)
sample tC2     : (-0 0 0 362841.9 -1875984.5 -676906.86 -0 0 0)
sample wC      : (-0 0 0 -0 0 0 -0 0 0)
sample lambdaH : 1
sample rhsLm1  : (1.573898e+09 -6.6780907e+09 3.4883464e+09)
sample rhsLm2  : (-4.9287032e-22 -1.2668289e-21 1.7386527e-22)
sample rhsLm3  : (0 0 0)
sample rhsLm4  : (-1.8173844e+09 1.6729242e+10 -3.6167946e+09)
sample rhsLm   : (0 0 0)
sample rhsW    : (-1.9800741e-21 -2.0700775e-21 4.2751601e-22)
deltaT         : 1e-08
 Simulation completed = 99.625%

Time Step =7971
 deltaT = 1e-08 s
 Time = 7.971e-05 s
Updating material motion ...
 Simulation completed = 99.6375%

Time Step =7972
 deltaT = 1e-08 s
 Time = 7.972e-05 s
 Simulation completed = 99.65%

Time Step =7973
 deltaT = 1e-08 s
 Time = 7.973e-05 s
Updating material motion ...
 Simulation completed = 99.6625%

Time Step =7974
 deltaT = 1e-08 s
 Time = 7.974e-05 s
 Simulation completed = 99.675%

Time Step =7975
 deltaT = 1e-08 s
 Time = 7.975e-05 s
Updating material motion ...
 Simulation completed = 99.6875%

Time Step =7976
 deltaT = 1e-08 s
 Time = 7.976e-05 s
 Simulation completed = 99.7%

Time Step =7977
 deltaT = 1e-08 s
 Time = 7.977e-05 s
Updating material motion ...
 Simulation completed = 99.7125%

Time Step =7978
 deltaT = 1e-08 s
 Time = 7.978e-05 s
 Simulation completed = 99.725%

Time Step =7979
 deltaT = 1e-08 s
 Time = 7.979e-05 s
Updating material motion ...
 Simulation completed = 99.7375%

Time Step =7980
 deltaT = 1e-08 s
 Time = 7.98e-05 s
Post Processing ...
Energy of the system:
 intE = 7.8952779e+20
Theoretical kinetic energy of the system:
 kinE = 7.0788397e+17
Theoretical potential energy of the system:
 potE = 1.5410432e+23
Theoretical energy of the system:
 theoE = 1.5410503e+23
time           : 7.98e-05
CoG            : 0.020497447 -0.39903718 0.019895118
sample solvedW : (5.3777014e-28 -5.1189417e-28 1.3373376e-27)
sample lm      : (-2990.8453 60208.403 -2857.7259)
sample pR      : (-2990.8453 60208.403 -2857.7259)
sample tC2     : (-0 0 0 362841.9 -1875984.5 -676906.86 -0 0 0)
sample wC      : (-0 0 0 -0 0 0 -0 0 0)
sample lambdaH : 1
sample rhsLm1  : (1.2624702e+09 -6.901166e+09 3.0949529e+09)
sample rhsLm2  : (-4.2272378e-22 -3.5990903e-21 2.1967447e-22)
sample rhsLm3  : (0 0 0)
sample rhsLm4  : (-1.6597338e+09 1.6389237e+10 -3.3798126e+09)
sample rhsLm   : (0 0 0)
sample rhsW    : (-2.430091e-21 -2.3400876e-21 4.0501517e-22)
deltaT         : 1e-08
 Simulation completed = 99.75%

Time Step =7981
 deltaT = 1e-08 s
 Time = 7.981e-05 s
Updating material motion ...
 Simulation completed = 99.7625%

Time Step =7982
 deltaT = 1e-08 s
 Time = 7.982e-05 s
 Simulation completed = 99.775%

Time Step =7983
 deltaT = 1e-08 s
 Time = 7.983e-05 s
Updating material motion ...
 Simulation completed = 99.7875%

Time Step =7984
 deltaT = 1e-08 s
 Time = 7.984e-05 s
 Simulation completed = 99.8%

Time Step =7985
 deltaT = 1e-08 s
 Time = 7.985e-05 s
Updating material motion ...
 Simulation completed = 99.8125%

Time Step =7986
 deltaT = 1e-08 s
 Time = 7.986e-05 s
 Simulation completed = 99.825%

Time Step =7987
 deltaT = 1e-08 s
 Time = 7.987e-05 s
Updating material motion ...
 Simulation completed = 99.8375%

Time Step =7988
 deltaT = 1e-08 s
 Time = 7.988e-05 s
 Simulation completed = 99.85%

Time Step =7989
 deltaT = 1e-08 s
 Time = 7.989e-05 s
Updating material motion ...
 Simulation completed = 99.8625%

Time Step =7990
 deltaT = 1e-08 s
 Time = 7.99e-05 s
Post Processing ...
Energy of the system:
 intE = 7.8953737e+20
Theoretical kinetic energy of the system:
 kinE = 7.0058176e+17
Theoretical potential energy of the system:
 potE = 1.5408614e+23
Theoretical energy of the system:
 theoE = 1.5408684e+23
time           : 7.99e-05
CoG            : 0.020495773 -0.39900909 0.019893458
sample solvedW : (3.9691486e-28 -6.2867354e-28 1.3537632e-27)
sample lm      : (-3036.3806 61126.577 -2892.13)
sample pR      : (-3036.3806 61126.577 -2892.13)
sample tC2     : (-0 0 0 362841.9 -1875984.5 -676906.86 -0 0 0)
sample wC      : (-0 0 0 -0 0 0 -0 0 0)
sample lambdaH : 1
sample rhsLm1  : (1.0122966e+09 -7.2007656e+09 2.7665856e+09)
sample rhsLm2  : (-3.3556574e-22 -5.7726401e-21 2.5584096e-22)
sample rhsLm3  : (0 0 0)
sample rhsLm4  : (-1.5175305e+09 1.6063875e+10 -3.161635e+09)
sample rhsLm   : (0 0 0)
sample rhsW    : (-2.8801078e-21 -2.3400876e-21 2.4750927e-22)
deltaT         : 1e-08
 Simulation completed = 99.875%

Time Step =7991
 deltaT = 1e-08 s
 Time = 7.991e-05 s
Updating material motion ...
 Simulation completed = 99.8875%

Time Step =7992
 deltaT = 1e-08 s
 Time = 7.992e-05 s
 Simulation completed = 99.9%

Time Step =7993
 deltaT = 1e-08 s
 Time = 7.993e-05 s
Updating material motion ...
 Simulation completed = 99.9125%

Time Step =7994
 deltaT = 1e-08 s
 Time = 7.994e-05 s
 Simulation completed = 99.925%

Time Step =7995
 deltaT = 1e-08 s
 Time = 7.995e-05 s
Updating material motion ...
 Simulation completed = 99.9375%

Time Step =7996
 deltaT = 1e-08 s
 Time = 7.996e-05 s
 Simulation completed = 99.95%

Time Step =7997
 deltaT = 1e-08 s
 Time = 7.997e-05 s
Updating material motion ...
 Simulation completed = 99.9625%

Time Step =7998
 deltaT = 1e-08 s
 Time = 7.998e-05 s
 Simulation completed = 99.975%

Time Step =7999
 deltaT = 1e-08 s
 Time = 7.999e-05 s
Updating material motion ...
 Simulation completed = 99.9875%

Time Step =8000
 deltaT = 1e-08 s
 Time = 8e-05 s
Post Processing ...
Energy of the system:
 intE = 7.8954786e+20
Theoretical kinetic energy of the system:
 kinE = 6.9196808e+17
Theoretical potential energy of the system:
 potE = 1.5406745e+23
Theoretical energy of the system:
 theoE = 1.5406815e+23
time           : 8e-05
CoG            : 0.020494082 -0.39898096 0.019891787
sample solvedW : (2.3850893e-28 -7.4972807e-28 1.3559008e-27)
sample lm      : (-3089.9981 61977.893 -2934.8945)
sample pR      : (-3089.9981 61977.893 -2934.8945)
sample tC2     : (-0 0 0 362841.9 -1875984.5 -676906.86 -0 0 0)
sample wC      : (-0 0 0 -0 0 0 -0 0 0)
sample lambdaH : 1
sample rhsLm1  : (8.3222055e+08 -7.6017079e+09 2.510881e+09)
sample rhsLm2  : (-2.6431673e-22 -7.1694276e-21 2.5604584e-22)
sample rhsLm3  : (0 0 0)
sample rhsLm4  : (-1.3898179e+09 1.5747715e+10 -2.9621071e+09)
sample rhsLm   : (0 0 0)
sample rhsW    : (-3.3301247e-21 -2.4750927e-21 -2.2500843e-23)
deltaT         : 1e-08
 Simulation completed = 100%

ExecutionTime = 481.07 s  ClockTime = 486 s
End

