/*---------------------------------------------------------------------------*\
  =========                 |
  \\      /  F ield         | OpenFOAM: The Open Source CFD Toolbox
   \\    /   O peration     | Website:  https://openfoam.org
    \\  /    A nd           | Version:  6
     \\/     M anipulation  |
\*---------------------------------------------------------------------------*/
Build  : 6
Exec   : vcALEFoam
Date   : Oct 27 2020
Time   : 20:07:25
Host   : "DESKTOP-JSPBMTA"
PID    : 24749
I/O    : uncollated
Case   : /home/thomas/OpenFOAM/vcALE/tutorials/vcALEFoam/translatingColumn
nProcs : 1
sigFpe : Enabling floating point exception trapping (FOAM_SIGFPE).
fileModificationChecking : Monitoring run-time modified files using timeStampMaster (fileModificationSkew 10)
allowSystemOperations : Allowing user-supplied system call operations

// * * * * * * * * * * * * * * * * * * * * * * * * * * * * * * * * * * * * * //
Create time

Create mesh for time = 0

Reading dictionaries ...
Reading data from dictionaries ...
GCL technique: withInvolution

Creating mesh parameters ...
Creating mesh coordinate fields ...
Creating linear momentum fields ...
Creating strain measure fields ...
Creating constitutive model ...
Creating fields for wave speeds ...
Creating ALE objects ...
Creating fields for fluxes ...
Creating fields for gradient ...
Creating fields for angular momentum ...
Creating fields for post-processing ...
Creating variables for time ...
Printing data ...

Printing material properties ...
Constitutive model = neoHookean
Density = 1100 [1 -3 0 0 0 0 0]
Young's modulus = 17000000 [1 -1 -2 0 0 0 0]
Poisson's ratio = 0.45 [0 0 0 0 0 0 0]
Lame's first parameter lambda = 52758621 [1 -1 -2 0 0 0 0]
Lame's second parameter mu = 5862069 [1 -1 -2 0 0 0 0]
Bulk modulus kappa = 56666667 [1 -1 -2 0 0 0 0]
Linear pressure wave speed = 242.1171 [0 1 -1 0 0 0 0]
Linear shear wave speed = 73.001052 [0 1 -1 0 0 0 0]
aleModel: neoHookean
fictitious Motion Type: sinusoid
beta: 0.02
T: 2

Printing global momentum ...
 Global linear momentum = (1000 1000 0)
 Global angular momentum = (-1.3470706e-14 1.3470706e-14 -3000)
Centroid of primal mesh = (-7.2280145e-19 3 -1.6985834e-18)
Centroid of dual mesh = (-2.3997008e-17 3 2.0816682e-17)
CoG: 0 0 0
sample lm      : (1000 1000 0)

sample pR      : (1000 1000 0)

sample tC2     : (577.35027 -577.35027 -577.35027 577.35027 -577.35027 -577.35027 0 -0 -0)

sample wC      : (-8.4276856e-19 8.4276856e-19 8.4276856e-19 -8.4276856e-18 8.4276856e-18 8.4276856e-18 0 -0 -0)

sample lambdaH : 1
sample rhsLm2  : (0 0 0)
sample rhsLm3  : (1.4709196 1.4709196 0)

Time Step =1
 deltaT = 0.00041302329 s
 Time = 0.00041302329 s
 Simulation completed = 0.082604657%

Time Step =2
 deltaT = 0.00041302329 s
 Time = 0.00082604657 s
 Simulation completed = 0.16520931%

Time Step =3
 deltaT = 0.00041302329 s
 Time = 0.0012390699 s
 Simulation completed = 0.24781397%

Time Step =4
 deltaT = 0.00041302329 s
 Time = 0.0016520931 s
 Simulation completed = 0.33041863%

Time Step =5
 deltaT = 0.00041302329 s
 Time = 0.0020651164 s
 Simulation completed = 0.41302329%

Time Step =6
 deltaT = 0.00041302329 s
 Time = 0.0024781397 s
 Simulation completed = 0.49562794%

Time Step =7
 deltaT = 0.00041302329 s
 Time = 0.002891163 s
 Simulation completed = 0.5782326%

Time Step =8
 deltaT = 0.00041302329 s
 Time = 0.0033041863 s
 Simulation completed = 0.66083726%

Time Step =9
 deltaT = 0.00041302329 s
 Time = 0.0037172096 s
 Simulation completed = 0.74344192%

Time Step =10
 deltaT = 0.00041302329 s
 Time = 0.0041302329 s
 Simulation completed = 0.82604657%

Time Step =11
 deltaT = 0.00041302329 s
 Time = 0.0045432562 s
 Simulation completed = 0.90865123%

Time Step =12
 deltaT = 0.00041302329 s
 Time = 0.0049562794 s
 Simulation completed = 0.99125589%

Time Step =13
 deltaT = 0.00041302329 s
 Time = 0.0053693027 s
 Simulation completed = 1.0738605%

Time Step =14
 deltaT = 0.00041302329 s
 Time = 0.005782326 s
 Simulation completed = 1.1564652%

Time Step =15
 deltaT = 0.00041302329 s
 Time = 0.0061953493 s
 Simulation completed = 1.2390699%

Time Step =16
 deltaT = 0.00041302329 s
 Time = 0.0066083726 s
 Simulation completed = 1.3216745%

Time Step =17
 deltaT = 0.00041302329 s
 Time = 0.0070213959 s
 Simulation completed = 1.4042792%

Time Step =18
 deltaT = 0.00041302329 s
 Time = 0.0074344192 s
 Simulation completed = 1.4868838%

Time Step =19
 deltaT = 0.00041302329 s
 Time = 0.0078474424 s
 Simulation completed = 1.5694885%

Time Step =20
 deltaT = 0.00041302329 s
 Time = 0.0082604657 s
 Simulation completed = 1.6520931%

Time Step =21
 deltaT = 0.00041302329 s
 Time = 0.008673489 s
 Simulation completed = 1.7346978%

Time Step =22
 deltaT = 0.00041302329 s
 Time = 0.0090865123 s
 Simulation completed = 1.8173025%

Time Step =23
 deltaT = 0.00041302329 s
 Time = 0.0094995356 s
 Simulation completed = 1.8999071%

Time Step =24
 deltaT = 0.00041302329 s
 Time = 0.0099125589 s
 Simulation completed = 1.9825118%

Time Step =25
 deltaT = 0.00041302329 s
 Time = 0.010325582 s
 Simulation completed = 2.0651164%

Time Step =26
 deltaT = 0.00041302329 s
 Time = 0.010738605 s
 Simulation completed = 2.1477211%

Time Step =27
 deltaT = 0.00041302329 s
 Time = 0.011151629 s
 Simulation completed = 2.2303257%

Time Step =28
 deltaT = 0.00041302329 s
 Time = 0.011564652 s
 Simulation completed = 2.3129304%

Time Step =29
 deltaT = 0.00041302329 s
 Time = 0.011977675 s
 Simulation completed = 2.3955351%

Time Step =30
 deltaT = 0.00041302329 s
 Time = 0.012390699 s
 Simulation completed = 2.4781397%

Time Step =31
 deltaT = 0.00041302329 s
 Time = 0.012803722 s
 Simulation completed = 2.5607444%

Time Step =32
 deltaT = 0.00041302329 s
 Time = 0.013216745 s
 Simulation completed = 2.643349%

Time Step =33
 deltaT = 0.00041302329 s
 Time = 0.013629768 s
 Simulation completed = 2.7259537%

Time Step =34
 deltaT = 0.00041302329 s
 Time = 0.014042792 s
 Simulation completed = 2.8085583%

Time Step =35
 deltaT = 0.00041302329 s
 Time = 0.014455815 s
 Simulation completed = 2.891163%

Time Step =36
 deltaT = 0.00041302329 s
 Time = 0.014868838 s
 Simulation completed = 2.9737677%

Time Step =37
 deltaT = 0.00041302329 s
 Time = 0.015281862 s
 Simulation completed = 3.0563723%

Time Step =38
 deltaT = 0.00041302329 s
 Time = 0.015694885 s
 Simulation completed = 3.138977%

Time Step =39
 deltaT = 0.00041302329 s
 Time = 0.016107908 s
 Simulation completed = 3.2215816%

Time Step =40
 deltaT = 0.00041302329 s
 Time = 0.016520931 s
 Simulation completed = 3.3041863%

Time Step =41
 deltaT = 0.00041302329 s
 Time = 0.016933955 s
 Simulation completed = 3.386791%

Time Step =42
 deltaT = 0.00041302329 s
 Time = 0.017346978 s
 Simulation completed = 3.4693956%

Time Step =43
 deltaT = 0.00041302329 s
 Time = 0.017760001 s
 Simulation completed = 3.5520003%

Time Step =44
 deltaT = 0.00041302329 s
 Time = 0.018173025 s
 Simulation completed = 3.6346049%

Time Step =45
 deltaT = 0.00041302329 s
 Time = 0.018586048 s
 Simulation completed = 3.7172096%

Time Step =46
 deltaT = 0.00041302329 s
 Time = 0.018999071 s
 Simulation completed = 3.7998142%

Time Step =47
 deltaT = 0.00041302329 s
 Time = 0.019412094 s
 Simulation completed = 3.8824189%

Time Step =48
 deltaT = 0.00041302329 s
 Time = 0.019825118 s
 Simulation completed = 3.9650236%

Time Step =49
 deltaT = 0.00041302329 s
 Time = 0.020238141 s
 Simulation completed = 4.0476282%

Time Step =50
 deltaT = 0.00041302329 s
 Time = 0.020651164 s
 Simulation completed = 4.1302329%

Time Step =51
 deltaT = 0.00041302329 s
 Time = 0.021064188 s
 Simulation completed = 4.2128375%

Time Step =52
 deltaT = 0.00041302329 s
 Time = 0.021477211 s
 Simulation completed = 4.2954422%

Time Step =53
 deltaT = 0.00041302329 s
 Time = 0.021890234 s
 Simulation completed = 4.3780468%

Time Step =54
 deltaT = 0.00041302329 s
 Time = 0.022303257 s
 Simulation completed = 4.4606515%

Time Step =55
 deltaT = 0.00041302329 s
 Time = 0.022716281 s
 Simulation completed = 4.5432562%

Time Step =56
 deltaT = 0.00041302329 s
 Time = 0.023129304 s
 Simulation completed = 4.6258608%

Time Step =57
 deltaT = 0.00041302329 s
 Time = 0.023542327 s
 Simulation completed = 4.7084655%

Time Step =58
 deltaT = 0.00041302329 s
 Time = 0.023955351 s
 Simulation completed = 4.7910701%

Time Step =59
 deltaT = 0.00041302329 s
 Time = 0.024368374 s
 Simulation completed = 4.8736748%

Time Step =60
 deltaT = 0.00041302329 s
 Time = 0.024781397 s
 Simulation completed = 4.9562794%

Time Step =61
 deltaT = 0.00041302329 s
 Time = 0.02519442 s
 Simulation completed = 5.0388841%

Time Step =62
 deltaT = 0.00041302329 s
 Time = 0.025607444 s
 Simulation completed = 5.1214888%

Time Step =63
 deltaT = 0.00041302329 s
 Time = 0.026020467 s
 Simulation completed = 5.2040934%

Time Step =64
 deltaT = 0.00041302329 s
 Time = 0.02643349 s
 Simulation completed = 5.2866981%

Time Step =65
 deltaT = 0.00041302329 s
 Time = 0.026846514 s
 Simulation completed = 5.3693027%

Time Step =66
 deltaT = 0.00041302329 s
 Time = 0.027259537 s
 Simulation completed = 5.4519074%

Time Step =67
 deltaT = 0.00041302329 s
 Time = 0.02767256 s
 Simulation completed = 5.534512%

Time Step =68
 deltaT = 0.00041302329 s
 Time = 0.028085583 s
 Simulation completed = 5.6171167%

Time Step =69
 deltaT = 0.00041302329 s
 Time = 0.028498607 s
 Simulation completed = 5.6997214%

Time Step =70
 deltaT = 0.00041302329 s
 Time = 0.02891163 s
 Simulation completed = 5.782326%

Time Step =71
 deltaT = 0.00041302329 s
 Time = 0.029324653 s
 Simulation completed = 5.8649307%

Time Step =72
 deltaT = 0.00041302329 s
 Time = 0.029737677 s
 Simulation completed = 5.9475353%

Time Step =73
 deltaT = 0.00041302329 s
 Time = 0.0301507 s
 Simulation completed = 6.03014%

Time Step =74
 deltaT = 0.00041302329 s
 Time = 0.030563723 s
 Simulation completed = 6.1127446%

Time Step =75
 deltaT = 0.00041302329 s
 Time = 0.030976746 s
 Simulation completed = 6.1953493%

Time Step =76
 deltaT = 0.00041302329 s
 Time = 0.03138977 s
 Simulation completed = 6.277954%

Time Step =77
 deltaT = 0.00041302329 s
 Time = 0.031802793 s
 Simulation completed = 6.3605586%

Time Step =78
 deltaT = 0.00041302329 s
 Time = 0.032215816 s
 Simulation completed = 6.4431633%

Time Step =79
 deltaT = 0.00041302329 s
 Time = 0.03262884 s
 Simulation completed = 6.5257679%

Time Step =80
 deltaT = 0.00041302329 s
 Time = 0.033041863 s
 Simulation completed = 6.6083726%

Time Step =81
 deltaT = 0.00041302329 s
 Time = 0.033454886 s
 Simulation completed = 6.6909772%

Time Step =82
 deltaT = 0.00041302329 s
 Time = 0.03386791 s
 Simulation completed = 6.7735819%

Time Step =83
 deltaT = 0.00041302329 s
 Time = 0.034280933 s
 Simulation completed = 6.8561866%

Time Step =84
 deltaT = 0.00041302329 s
 Time = 0.034693956 s
 Simulation completed = 6.9387912%

Time Step =85
 deltaT = 0.00041302329 s
 Time = 0.035106979 s
 Simulation completed = 7.0213959%

Time Step =86
 deltaT = 0.00041302329 s
 Time = 0.035520003 s
 Simulation completed = 7.1040005%

Time Step =87
 deltaT = 0.00041302329 s
 Time = 0.035933026 s
 Simulation completed = 7.1866052%

Time Step =88
 deltaT = 0.00041302329 s
 Time = 0.036346049 s
 Simulation completed = 7.2692098%

Time Step =89
 deltaT = 0.00041302329 s
 Time = 0.036759073 s
 Simulation completed = 7.3518145%

Time Step =90
 deltaT = 0.00041302329 s
 Time = 0.037172096 s
 Simulation completed = 7.4344192%

Time Step =91
 deltaT = 0.00041302329 s
 Time = 0.037585119 s
 Simulation completed = 7.5170238%

Time Step =92
 deltaT = 0.00041302329 s
 Time = 0.037998142 s
 Simulation completed = 7.5996285%

Time Step =93
 deltaT = 0.00041302329 s
 Time = 0.038411166 s
 Simulation completed = 7.6822331%

Time Step =94
 deltaT = 0.00041302329 s
 Time = 0.038824189 s
 Simulation completed = 7.7648378%

Time Step =95
 deltaT = 0.00041302329 s
 Time = 0.039237212 s
 Simulation completed = 7.8474424%

Time Step =96
 deltaT = 0.00041302329 s
 Time = 0.039650236 s
 Simulation completed = 7.9300471%

Time Step =97
 deltaT = 0.00041302329 s
 Time = 0.040063259 s
 Simulation completed = 8.0126518%

Time Step =98
 deltaT = 0.00041302329 s
 Time = 0.040476282 s
 Simulation completed = 8.0952564%

Time Step =99
 deltaT = 0.00041302329 s
 Time = 0.040889305 s
 Simulation completed = 8.1778611%

Time Step =100
 deltaT = 0.00041302329 s
 Time = 0.041302329 s
 Simulation completed = 8.2604657%

Time Step =101
 deltaT = 0.00041302329 s
 Time = 0.041715352 s
 Simulation completed = 8.3430704%

Time Step =102
 deltaT = 0.00041302329 s
 Time = 0.042128375 s
 Simulation completed = 8.425675%

Time Step =103
 deltaT = 0.00041302329 s
 Time = 0.042541399 s
 Simulation completed = 8.5082797%

Time Step =104
 deltaT = 0.00041302329 s
 Time = 0.042954422 s
 Simulation completed = 8.5908844%

Time Step =105
 deltaT = 0.00041302329 s
 Time = 0.043367445 s
 Simulation completed = 8.673489%

Time Step =106
 deltaT = 0.00041302329 s
 Time = 0.043780468 s
 Simulation completed = 8.7560937%

Time Step =107
 deltaT = 0.00041302329 s
 Time = 0.044193492 s
 Simulation completed = 8.8386983%

Time Step =108
 deltaT = 0.00041302329 s
 Time = 0.044606515 s
 Simulation completed = 8.921303%

Time Step =109
 deltaT = 0.00041302329 s
 Time = 0.045019538 s
 Simulation completed = 9.0039076%

Time Step =110
 deltaT = 0.00041302329 s
 Time = 0.045432562 s
 Simulation completed = 9.0865123%

Time Step =111
 deltaT = 0.00041302329 s
 Time = 0.045845585 s
 Simulation completed = 9.169117%

Time Step =112
 deltaT = 0.00041302329 s
 Time = 0.046258608 s
 Simulation completed = 9.2517216%

Time Step =113
 deltaT = 0.00041302329 s
 Time = 0.046671631 s
 Simulation completed = 9.3343263%

Time Step =114
 deltaT = 0.00041302329 s
 Time = 0.047084655 s
 Simulation completed = 9.4169309%

Time Step =115
 deltaT = 0.00041302329 s
 Time = 0.047497678 s
 Simulation completed = 9.4995356%

Time Step =116
 deltaT = 0.00041302329 s
 Time = 0.047910701 s
 Simulation completed = 9.5821402%

Time Step =117
 deltaT = 0.00041302329 s
 Time = 0.048323725 s
 Simulation completed = 9.6647449%

Time Step =118
 deltaT = 0.00041302329 s
 Time = 0.048736748 s
 Simulation completed = 9.7473496%

Time Step =119
 deltaT = 0.00041302329 s
 Time = 0.049149771 s
 Simulation completed = 9.8299542%

Time Step =120
 deltaT = 0.00041302329 s
 Time = 0.049562794 s
 Simulation completed = 9.9125589%

Time Step =121
 deltaT = 0.00041302329 s
 Time = 0.049975818 s
 Simulation completed = 9.9951635%

Time Step =122
 deltaT = 0.00041302329 s
 Time = 0.050388841 s
 Simulation completed = 10.077768%

Time Step =123
 deltaT = 0.00041302329 s
 Time = 0.050801864 s
 Simulation completed = 10.160373%

Time Step =124
 deltaT = 0.00041302329 s
 Time = 0.051214888 s
 Simulation completed = 10.242978%

Time Step =125
 deltaT = 0.00041302329 s
 Time = 0.051627911 s
 Simulation completed = 10.325582%

Time Step =126
 deltaT = 0.00041302329 s
 Time = 0.052040934 s
 Simulation completed = 10.408187%

Time Step =127
 deltaT = 0.00041302329 s
 Time = 0.052453957 s
 Simulation completed = 10.490791%

Time Step =128
 deltaT = 0.00041302329 s
 Time = 0.052866981 s
 Simulation completed = 10.573396%

Time Step =129
 deltaT = 0.00041302329 s
 Time = 0.053280004 s
 Simulation completed = 10.656001%

Time Step =130
 deltaT = 0.00041302329 s
 Time = 0.053693027 s
 Simulation completed = 10.738605%

Time Step =131
 deltaT = 0.00041302329 s
 Time = 0.054106051 s
 Simulation completed = 10.82121%

Time Step =132
 deltaT = 0.00041302329 s
 Time = 0.054519074 s
 Simulation completed = 10.903815%

Time Step =133
 deltaT = 0.00041302329 s
 Time = 0.054932097 s
 Simulation completed = 10.986419%

Time Step =134
 deltaT = 0.00041302329 s
 Time = 0.05534512 s
 Simulation completed = 11.069024%

Time Step =135
 deltaT = 0.00041302329 s
 Time = 0.055758144 s
 Simulation completed = 11.151629%

Time Step =136
 deltaT = 0.00041302329 s
 Time = 0.056171167 s
 Simulation completed = 11.234233%

Time Step =137
 deltaT = 0.00041302329 s
 Time = 0.05658419 s
 Simulation completed = 11.316838%

Time Step =138
 deltaT = 0.00041302329 s
 Time = 0.056997214 s
 Simulation completed = 11.399443%

Time Step =139
 deltaT = 0.00041302329 s
 Time = 0.057410237 s
 Simulation completed = 11.482047%

Time Step =140
 deltaT = 0.00041302329 s
 Time = 0.05782326 s
 Simulation completed = 11.564652%

Time Step =141
 deltaT = 0.00041302329 s
 Time = 0.058236283 s
 Simulation completed = 11.647257%

Time Step =142
 deltaT = 0.00041302329 s
 Time = 0.058649307 s
 Simulation completed = 11.729861%

Time Step =143
 deltaT = 0.00041302329 s
 Time = 0.05906233 s
 Simulation completed = 11.812466%

Time Step =144
 deltaT = 0.00041302329 s
 Time = 0.059475353 s
 Simulation completed = 11.895071%

Time Step =145
 deltaT = 0.00041302329 s
 Time = 0.059888377 s
 Simulation completed = 11.977675%

Time Step =146
 deltaT = 0.00041302329 s
 Time = 0.0603014 s
 Simulation completed = 12.06028%

Time Step =147
 deltaT = 0.00041302329 s
 Time = 0.060714423 s
 Simulation completed = 12.142885%

Time Step =148
 deltaT = 0.00041302329 s
 Time = 0.061127446 s
 Simulation completed = 12.225489%

Time Step =149
 deltaT = 0.00041302329 s
 Time = 0.06154047 s
 Simulation completed = 12.308094%

Time Step =150
 deltaT = 0.00041302329 s
 Time = 0.061953493 s
 Simulation completed = 12.390699%

Time Step =151
 deltaT = 0.00041302329 s
 Time = 0.062366516 s
 Simulation completed = 12.473303%

Time Step =152
 deltaT = 0.00041302329 s
 Time = 0.06277954 s
 Simulation completed = 12.555908%

Time Step =153
 deltaT = 0.00041302329 s
 Time = 0.063192563 s
 Simulation completed = 12.638513%

Time Step =154
 deltaT = 0.00041302329 s
 Time = 0.063605586 s
 Simulation completed = 12.721117%

Time Step =155
 deltaT = 0.00041302329 s
 Time = 0.064018609 s
 Simulation completed = 12.803722%

Time Step =156
 deltaT = 0.00041302329 s
 Time = 0.064431633 s
 Simulation completed = 12.886327%

Time Step =157
 deltaT = 0.00041302329 s
 Time = 0.064844656 s
 Simulation completed = 12.968931%

Time Step =158
 deltaT = 0.00041302329 s
 Time = 0.065257679 s
 Simulation completed = 13.051536%

Time Step =159
 deltaT = 0.00041302329 s
 Time = 0.065670703 s
 Simulation completed = 13.134141%

Time Step =160
 deltaT = 0.00041302329 s
 Time = 0.066083726 s
 Simulation completed = 13.216745%

Time Step =161
 deltaT = 0.00041302329 s
 Time = 0.066496749 s
 Simulation completed = 13.29935%

Time Step =162
 deltaT = 0.00041302329 s
 Time = 0.066909772 s
 Simulation completed = 13.381954%

Time Step =163
 deltaT = 0.00041302329 s
 Time = 0.067322796 s
 Simulation completed = 13.464559%

Time Step =164
 deltaT = 0.00041302329 s
 Time = 0.067735819 s
 Simulation completed = 13.547164%

Time Step =165
 deltaT = 0.00041302329 s
 Time = 0.068148842 s
 Simulation completed = 13.629768%

Time Step =166
 deltaT = 0.00041302329 s
 Time = 0.068561866 s
 Simulation completed = 13.712373%

Time Step =167
 deltaT = 0.00041302329 s
 Time = 0.068974889 s
 Simulation completed = 13.794978%

Time Step =168
 deltaT = 0.00041302329 s
 Time = 0.069387912 s
 Simulation completed = 13.877582%

Time Step =169
 deltaT = 0.00041302329 s
 Time = 0.069800935 s
 Simulation completed = 13.960187%

Time Step =170
 deltaT = 0.00041302329 s
 Time = 0.070213959 s
 Simulation completed = 14.042792%

Time Step =171
 deltaT = 0.00041302329 s
 Time = 0.070626982 s
 Simulation completed = 14.125396%

Time Step =172
 deltaT = 0.00041302329 s
 Time = 0.071040005 s
 Simulation completed = 14.208001%

Time Step =173
 deltaT = 0.00041302329 s
 Time = 0.071453029 s
 Simulation completed = 14.290606%

Time Step =174
 deltaT = 0.00041302329 s
 Time = 0.071866052 s
 Simulation completed = 14.37321%

Time Step =175
 deltaT = 0.00041302329 s
 Time = 0.072279075 s
 Simulation completed = 14.455815%

Time Step =176
 deltaT = 0.00041302329 s
 Time = 0.072692098 s
 Simulation completed = 14.53842%

Time Step =177
 deltaT = 0.00041302329 s
 Time = 0.073105122 s
 Simulation completed = 14.621024%

Time Step =178
 deltaT = 0.00041302329 s
 Time = 0.073518145 s
 Simulation completed = 14.703629%

Time Step =179
 deltaT = 0.00041302329 s
 Time = 0.073931168 s
 Simulation completed = 14.786234%

Time Step =180
 deltaT = 0.00041302329 s
 Time = 0.074344192 s
 Simulation completed = 14.868838%

Time Step =181
 deltaT = 0.00041302329 s
 Time = 0.074757215 s
 Simulation completed = 14.951443%

Time Step =182
 deltaT = 0.00041302329 s
 Time = 0.075170238 s
 Simulation completed = 15.034048%

Time Step =183
 deltaT = 0.00041302329 s
 Time = 0.075583261 s
 Simulation completed = 15.116652%

Time Step =184
 deltaT = 0.00041302329 s
 Time = 0.075996285 s
 Simulation completed = 15.199257%

Time Step =185
 deltaT = 0.00041302329 s
 Time = 0.076409308 s
 Simulation completed = 15.281862%

Time Step =186
 deltaT = 0.00041302329 s
 Time = 0.076822331 s
 Simulation completed = 15.364466%

Time Step =187
 deltaT = 0.00041302329 s
 Time = 0.077235355 s
 Simulation completed = 15.447071%

Time Step =188
 deltaT = 0.00041302329 s
 Time = 0.077648378 s
 Simulation completed = 15.529676%

Time Step =189
 deltaT = 0.00041302329 s
 Time = 0.078061401 s
 Simulation completed = 15.61228%

Time Step =190
 deltaT = 0.00041302329 s
 Time = 0.078474424 s
 Simulation completed = 15.694885%

Time Step =191
 deltaT = 0.00041302329 s
 Time = 0.078887448 s
 Simulation completed = 15.77749%

Time Step =192
 deltaT = 0.00041302329 s
 Time = 0.079300471 s
 Simulation completed = 15.860094%

Time Step =193
 deltaT = 0.00041302329 s
 Time = 0.079713494 s
 Simulation completed = 15.942699%

Time Step =194
 deltaT = 0.00041302329 s
 Time = 0.080126518 s
 Simulation completed = 16.025304%

Time Step =195
 deltaT = 0.00041302329 s
 Time = 0.080539541 s
 Simulation completed = 16.107908%

Time Step =196
 deltaT = 0.00041302329 s
 Time = 0.080952564 s
 Simulation completed = 16.190513%

Time Step =197
 deltaT = 0.00041302329 s
 Time = 0.081365587 s
 Simulation completed = 16.273117%

Time Step =198
 deltaT = 0.00041302329 s
 Time = 0.081778611 s
 Simulation completed = 16.355722%

Time Step =199
 deltaT = 0.00041302329 s
 Time = 0.082191634 s
 Simulation completed = 16.438327%

Time Step =200
 deltaT = 0.00041302329 s
 Time = 0.082604657 s
 Simulation completed = 16.520931%

Time Step =201
 deltaT = 0.00041302329 s
 Time = 0.083017681 s
 Simulation completed = 16.603536%

Time Step =202
 deltaT = 0.00041302329 s
 Time = 0.083430704 s
 Simulation completed = 16.686141%

Time Step =203
 deltaT = 0.00041302329 s
 Time = 0.083843727 s
 Simulation completed = 16.768745%

Time Step =204
 deltaT = 0.00041302329 s
 Time = 0.08425675 s
 Simulation completed = 16.85135%

Time Step =205
 deltaT = 0.00041302329 s
 Time = 0.084669774 s
 Simulation completed = 16.933955%

Time Step =206
 deltaT = 0.00041302329 s
 Time = 0.085082797 s
 Simulation completed = 17.016559%

Time Step =207
 deltaT = 0.00041302329 s
 Time = 0.08549582 s
 Simulation completed = 17.099164%

Time Step =208
 deltaT = 0.00041302329 s
 Time = 0.085908844 s
 Simulation completed = 17.181769%

Time Step =209
 deltaT = 0.00041302329 s
 Time = 0.086321867 s
 Simulation completed = 17.264373%

Time Step =210
 deltaT = 0.00041302329 s
 Time = 0.08673489 s
 Simulation completed = 17.346978%

Time Step =211
 deltaT = 0.00041302329 s
 Time = 0.087147913 s
 Simulation completed = 17.429583%

Time Step =212
 deltaT = 0.00041302329 s
 Time = 0.087560937 s
 Simulation completed = 17.512187%

Time Step =213
 deltaT = 0.00041302329 s
 Time = 0.08797396 s
 Simulation completed = 17.594792%

Time Step =214
 deltaT = 0.00041302329 s
 Time = 0.088386983 s
 Simulation completed = 17.677397%

Time Step =215
 deltaT = 0.00041302329 s
 Time = 0.088800007 s
 Simulation completed = 17.760001%

Time Step =216
 deltaT = 0.00041302329 s
 Time = 0.08921303 s
 Simulation completed = 17.842606%

Time Step =217
 deltaT = 0.00041302329 s
 Time = 0.089626053 s
 Simulation completed = 17.925211%

Time Step =218
 deltaT = 0.00041302329 s
 Time = 0.090039076 s
 Simulation completed = 18.007815%

Time Step =219
 deltaT = 0.00041302329 s
 Time = 0.0904521 s
 Simulation completed = 18.09042%

Time Step =220
 deltaT = 0.00041302329 s
 Time = 0.090865123 s
 Simulation completed = 18.173025%

Time Step =221
 deltaT = 0.00041302329 s
 Time = 0.091278146 s
 Simulation completed = 18.255629%

Time Step =222
 deltaT = 0.00041302329 s
 Time = 0.09169117 s
 Simulation completed = 18.338234%

Time Step =223
 deltaT = 0.00041302329 s
 Time = 0.092104193 s
 Simulation completed = 18.420839%

Time Step =224
 deltaT = 0.00041302329 s
 Time = 0.092517216 s
 Simulation completed = 18.503443%

Time Step =225
 deltaT = 0.00041302329 s
 Time = 0.092930239 s
 Simulation completed = 18.586048%

Time Step =226
 deltaT = 0.00041302329 s
 Time = 0.093343263 s
 Simulation completed = 18.668653%

Time Step =227
 deltaT = 0.00041302329 s
 Time = 0.093756286 s
 Simulation completed = 18.751257%

Time Step =228
 deltaT = 0.00041302329 s
 Time = 0.094169309 s
 Simulation completed = 18.833862%

Time Step =229
 deltaT = 0.00041302329 s
 Time = 0.094582333 s
 Simulation completed = 18.916467%

Time Step =230
 deltaT = 0.00041302329 s
 Time = 0.094995356 s
 Simulation completed = 18.999071%

Time Step =231
 deltaT = 0.00041302329 s
 Time = 0.095408379 s
 Simulation completed = 19.081676%

Time Step =232
 deltaT = 0.00041302329 s
 Time = 0.095821402 s
 Simulation completed = 19.16428%

Time Step =233
 deltaT = 0.00041302329 s
 Time = 0.096234426 s
 Simulation completed = 19.246885%

Time Step =234
 deltaT = 0.00041302329 s
 Time = 0.096647449 s
 Simulation completed = 19.32949%

Time Step =235
 deltaT = 0.00041302329 s
 Time = 0.097060472 s
 Simulation completed = 19.412094%

Time Step =236
 deltaT = 0.00041302329 s
 Time = 0.097473496 s
 Simulation completed = 19.494699%

Time Step =237
 deltaT = 0.00041302329 s
 Time = 0.097886519 s
 Simulation completed = 19.577304%

Time Step =238
 deltaT = 0.00041302329 s
 Time = 0.098299542 s
 Simulation completed = 19.659908%

Time Step =239
 deltaT = 0.00041302329 s
 Time = 0.098712566 s
 Simulation completed = 19.742513%

Time Step =240
 deltaT = 0.00041302329 s
 Time = 0.099125589 s
 Simulation completed = 19.825118%

Time Step =241
 deltaT = 0.00041302329 s
 Time = 0.099538612 s
 Simulation completed = 19.907722%

Time Step =242
 deltaT = 0.00041302329 s
 Time = 0.099951635 s
CoG: 3.7860468 3.7860468 -3.1111097e-15
sample lm      : (1021.3854 1021.3854 -4.4436351e-11)

sample pR      : (1000 1000 -4.3505957e-11)

sample tC2     : (577.35027 -577.35027 -577.35027 577.35027 -577.35027 -577.35027 7.3695622e-13 -7.3695622e-13 -7.3695622e-13)

sample wC      : (-8.3240269e-19 8.3240269e-19 8.3240269e-19 -8.0156009e-18 8.0156009e-18 8.0156009e-18 0 -0 -0)

sample lambdaH : 0.97862537
sample rhsLm2  : (0 0 0)
sample rhsLm3  : (4.5501605 4.5501605 -2.1358582e-13)
 Simulation completed = 19.990327%

Time Step =243
 deltaT = 0.00041302329 s
 Time = 0.10036466 s
 Simulation completed = 20.072932%

Time Step =244
 deltaT = 0.00041302329 s
 Time = 0.10077768 s
 Simulation completed = 20.155536%

Time Step =245
 deltaT = 0.00041302329 s
 Time = 0.10119071 s
 Simulation completed = 20.238141%

Time Step =246
 deltaT = 0.00041302329 s
 Time = 0.10160373 s
 Simulation completed = 20.320746%

Time Step =247
 deltaT = 0.00041302329 s
 Time = 0.10201675 s
 Simulation completed = 20.40335%

Time Step =248
 deltaT = 0.00041302329 s
 Time = 0.10242978 s
 Simulation completed = 20.485955%

Time Step =249
 deltaT = 0.00041302329 s
 Time = 0.1028428 s
 Simulation completed = 20.56856%

Time Step =250
 deltaT = 0.00041302329 s
 Time = 0.10325582 s
 Simulation completed = 20.651164%

Time Step =251
 deltaT = 0.00041302329 s
 Time = 0.10366884 s
 Simulation completed = 20.733769%

Time Step =252
 deltaT = 0.00041302329 s
 Time = 0.10408187 s
 Simulation completed = 20.816374%

Time Step =253
 deltaT = 0.00041302329 s
 Time = 0.10449489 s
 Simulation completed = 20.898978%

Time Step =254
 deltaT = 0.00041302329 s
 Time = 0.10490791 s
 Simulation completed = 20.981583%

Time Step =255
 deltaT = 0.00041302329 s
 Time = 0.10532094 s
 Simulation completed = 21.064188%

Time Step =256
 deltaT = 0.00041302329 s
 Time = 0.10573396 s
 Simulation completed = 21.146792%

Time Step =257
 deltaT = 0.00041302329 s
 Time = 0.10614698 s
 Simulation completed = 21.229397%

Time Step =258
 deltaT = 0.00041302329 s
 Time = 0.10656001 s
 Simulation completed = 21.312002%

Time Step =259
 deltaT = 0.00041302329 s
 Time = 0.10697303 s
 Simulation completed = 21.394606%

Time Step =260
 deltaT = 0.00041302329 s
 Time = 0.10738605 s
 Simulation completed = 21.477211%

Time Step =261
 deltaT = 0.00041302329 s
 Time = 0.10779908 s
 Simulation completed = 21.559816%

Time Step =262
 deltaT = 0.00041302329 s
 Time = 0.1082121 s
 Simulation completed = 21.64242%

Time Step =263
 deltaT = 0.00041302329 s
 Time = 0.10862512 s
 Simulation completed = 21.725025%

Time Step =264
 deltaT = 0.00041302329 s
 Time = 0.10903815 s
 Simulation completed = 21.80763%

Time Step =265
 deltaT = 0.00041302329 s
 Time = 0.10945117 s
 Simulation completed = 21.890234%

Time Step =266
 deltaT = 0.00041302329 s
 Time = 0.10986419 s
 Simulation completed = 21.972839%

Time Step =267
 deltaT = 0.00041302329 s
 Time = 0.11027722 s
 Simulation completed = 22.055444%

Time Step =268
 deltaT = 0.00041302329 s
 Time = 0.11069024 s
 Simulation completed = 22.138048%

Time Step =269
 deltaT = 0.00041302329 s
 Time = 0.11110326 s
 Simulation completed = 22.220653%

Time Step =270
 deltaT = 0.00041302329 s
 Time = 0.11151629 s
 Simulation completed = 22.303257%

Time Step =271
 deltaT = 0.00041302329 s
 Time = 0.11192931 s
 Simulation completed = 22.385862%

Time Step =272
 deltaT = 0.00041302329 s
 Time = 0.11234233 s
 Simulation completed = 22.468467%

Time Step =273
 deltaT = 0.00041302329 s
 Time = 0.11275536 s
 Simulation completed = 22.551071%

Time Step =274
 deltaT = 0.00041302329 s
 Time = 0.11316838 s
 Simulation completed = 22.633676%

Time Step =275
 deltaT = 0.00041302329 s
 Time = 0.1135814 s
 Simulation completed = 22.716281%

Time Step =276
 deltaT = 0.00041302329 s
 Time = 0.11399443 s
 Simulation completed = 22.798885%

Time Step =277
 deltaT = 0.00041302329 s
 Time = 0.11440745 s
 Simulation completed = 22.88149%

Time Step =278
 deltaT = 0.00041302329 s
 Time = 0.11482047 s
 Simulation completed = 22.964095%

Time Step =279
 deltaT = 0.00041302329 s
 Time = 0.1152335 s
 Simulation completed = 23.046699%

Time Step =280
 deltaT = 0.00041302329 s
 Time = 0.11564652 s
 Simulation completed = 23.129304%

Time Step =281
 deltaT = 0.00041302329 s
 Time = 0.11605954 s
 Simulation completed = 23.211909%

Time Step =282
 deltaT = 0.00041302329 s
 Time = 0.11647257 s
 Simulation completed = 23.294513%

Time Step =283
 deltaT = 0.00041302329 s
 Time = 0.11688559 s
 Simulation completed = 23.377118%

Time Step =284
 deltaT = 0.00041302329 s
 Time = 0.11729861 s
 Simulation completed = 23.459723%

Time Step =285
 deltaT = 0.00041302329 s
 Time = 0.11771164 s
 Simulation completed = 23.542327%

Time Step =286
 deltaT = 0.00041302329 s
 Time = 0.11812466 s
 Simulation completed = 23.624932%

Time Step =287
 deltaT = 0.00041302329 s
 Time = 0.11853768 s
 Simulation completed = 23.707537%

Time Step =288
 deltaT = 0.00041302329 s
 Time = 0.11895071 s
 Simulation completed = 23.790141%

Time Step =289
 deltaT = 0.00041302329 s
 Time = 0.11936373 s
 Simulation completed = 23.872746%

Time Step =290
 deltaT = 0.00041302329 s
 Time = 0.11977675 s
 Simulation completed = 23.955351%

Time Step =291
 deltaT = 0.00041302329 s
 Time = 0.12018978 s
 Simulation completed = 24.037955%

Time Step =292
 deltaT = 0.00041302329 s
 Time = 0.1206028 s
 Simulation completed = 24.12056%

Time Step =293
 deltaT = 0.00041302329 s
 Time = 0.12101582 s
 Simulation completed = 24.203165%

Time Step =294
 deltaT = 0.00041302329 s
 Time = 0.12142885 s
 Simulation completed = 24.285769%

Time Step =295
 deltaT = 0.00041302329 s
 Time = 0.12184187 s
 Simulation completed = 24.368374%

Time Step =296
 deltaT = 0.00041302329 s
 Time = 0.12225489 s
 Simulation completed = 24.450979%

Time Step =297
 deltaT = 0.00041302329 s
 Time = 0.12266792 s
 Simulation completed = 24.533583%

Time Step =298
 deltaT = 0.00041302329 s
 Time = 0.12308094 s
 Simulation completed = 24.616188%

Time Step =299
 deltaT = 0.00041302329 s
 Time = 0.12349396 s
 Simulation completed = 24.698793%

Time Step =300
 deltaT = 0.00041302329 s
 Time = 0.12390699 s
 Simulation completed = 24.781397%

Time Step =301
 deltaT = 0.00041302329 s
 Time = 0.12432001 s
 Simulation completed = 24.864002%

Time Step =302
 deltaT = 0.00041302329 s
 Time = 0.12473303 s
 Simulation completed = 24.946607%

Time Step =303
 deltaT = 0.00041302329 s
 Time = 0.12514606 s
 Simulation completed = 25.029211%

Time Step =304
 deltaT = 0.00041302329 s
 Time = 0.12555908 s
 Simulation completed = 25.111816%

Time Step =305
 deltaT = 0.00041302329 s
 Time = 0.1259721 s
 Simulation completed = 25.19442%

Time Step =306
 deltaT = 0.00041302329 s
 Time = 0.12638513 s
 Simulation completed = 25.277025%

Time Step =307
 deltaT = 0.00041302329 s
 Time = 0.12679815 s
 Simulation completed = 25.35963%

Time Step =308
 deltaT = 0.00041302329 s
 Time = 0.12721117 s
 Simulation completed = 25.442234%

Time Step =309
 deltaT = 0.00041302329 s
 Time = 0.1276242 s
 Simulation completed = 25.524839%

Time Step =310
 deltaT = 0.00041302329 s
 Time = 0.12803722 s
 Simulation completed = 25.607444%

Time Step =311
 deltaT = 0.00041302329 s
 Time = 0.12845024 s
 Simulation completed = 25.690048%

Time Step =312
 deltaT = 0.00041302329 s
 Time = 0.12886327 s
 Simulation completed = 25.772653%

Time Step =313
 deltaT = 0.00041302329 s
 Time = 0.12927629 s
 Simulation completed = 25.855258%

Time Step =314
 deltaT = 0.00041302329 s
 Time = 0.12968931 s
 Simulation completed = 25.937862%

Time Step =315
 deltaT = 0.00041302329 s
 Time = 0.13010234 s
 Simulation completed = 26.020467%

Time Step =316
 deltaT = 0.00041302329 s
 Time = 0.13051536 s
 Simulation completed = 26.103072%

Time Step =317
 deltaT = 0.00041302329 s
 Time = 0.13092838 s
 Simulation completed = 26.185676%

Time Step =318
 deltaT = 0.00041302329 s
 Time = 0.13134141 s
 Simulation completed = 26.268281%

Time Step =319
 deltaT = 0.00041302329 s
 Time = 0.13175443 s
 Simulation completed = 26.350886%

Time Step =320
 deltaT = 0.00041302329 s
 Time = 0.13216745 s
 Simulation completed = 26.43349%

Time Step =321
 deltaT = 0.00041302329 s
 Time = 0.13258048 s
 Simulation completed = 26.516095%

Time Step =322
 deltaT = 0.00041302329 s
 Time = 0.1329935 s
 Simulation completed = 26.5987%

Time Step =323
 deltaT = 0.00041302329 s
 Time = 0.13340652 s
 Simulation completed = 26.681304%

Time Step =324
 deltaT = 0.00041302329 s
 Time = 0.13381954 s
 Simulation completed = 26.763909%

Time Step =325
 deltaT = 0.00041302329 s
 Time = 0.13423257 s
 Simulation completed = 26.846514%

Time Step =326
 deltaT = 0.00041302329 s
 Time = 0.13464559 s
 Simulation completed = 26.929118%

Time Step =327
 deltaT = 0.00041302329 s
 Time = 0.13505861 s
 Simulation completed = 27.011723%

Time Step =328
 deltaT = 0.00041302329 s
 Time = 0.13547164 s
 Simulation completed = 27.094328%

Time Step =329
 deltaT = 0.00041302329 s
 Time = 0.13588466 s
 Simulation completed = 27.176932%

Time Step =330
 deltaT = 0.00041302329 s
 Time = 0.13629768 s
 Simulation completed = 27.259537%

Time Step =331
 deltaT = 0.00041302329 s
 Time = 0.13671071 s
 Simulation completed = 27.342142%

Time Step =332
 deltaT = 0.00041302329 s
 Time = 0.13712373 s
 Simulation completed = 27.424746%

Time Step =333
 deltaT = 0.00041302329 s
 Time = 0.13753675 s
 Simulation completed = 27.507351%

Time Step =334
 deltaT = 0.00041302329 s
 Time = 0.13794978 s
 Simulation completed = 27.589956%

Time Step =335
 deltaT = 0.00041302329 s
 Time = 0.1383628 s
 Simulation completed = 27.67256%

Time Step =336
 deltaT = 0.00041302329 s
 Time = 0.13877582 s
 Simulation completed = 27.755165%

Time Step =337
 deltaT = 0.00041302329 s
 Time = 0.13918885 s
 Simulation completed = 27.83777%

Time Step =338
 deltaT = 0.00041302329 s
 Time = 0.13960187 s
 Simulation completed = 27.920374%

Time Step =339
 deltaT = 0.00041302329 s
 Time = 0.14001489 s
 Simulation completed = 28.002979%

Time Step =340
 deltaT = 0.00041302329 s
 Time = 0.14042792 s
 Simulation completed = 28.085583%

Time Step =341
 deltaT = 0.00041302329 s
 Time = 0.14084094 s
 Simulation completed = 28.168188%

Time Step =342
 deltaT = 0.00041302329 s
 Time = 0.14125396 s
 Simulation completed = 28.250793%

Time Step =343
 deltaT = 0.00041302329 s
 Time = 0.14166699 s
 Simulation completed = 28.333397%

Time Step =344
 deltaT = 0.00041302329 s
 Time = 0.14208001 s
 Simulation completed = 28.416002%

Time Step =345
 deltaT = 0.00041302329 s
 Time = 0.14249303 s
 Simulation completed = 28.498607%

Time Step =346
 deltaT = 0.00041302329 s
 Time = 0.14290606 s
 Simulation completed = 28.581211%

Time Step =347
 deltaT = 0.00041302329 s
 Time = 0.14331908 s
 Simulation completed = 28.663816%

Time Step =348
 deltaT = 0.00041302329 s
 Time = 0.1437321 s
 Simulation completed = 28.746421%

Time Step =349
 deltaT = 0.00041302329 s
 Time = 0.14414513 s
 Simulation completed = 28.829025%

Time Step =350
 deltaT = 0.00041302329 s
 Time = 0.14455815 s
 Simulation completed = 28.91163%

Time Step =351
 deltaT = 0.00041302329 s
 Time = 0.14497117 s
 Simulation completed = 28.994235%

Time Step =352
 deltaT = 0.00041302329 s
 Time = 0.1453842 s
 Simulation completed = 29.076839%

Time Step =353
 deltaT = 0.00041302329 s
 Time = 0.14579722 s
 Simulation completed = 29.159444%

Time Step =354
 deltaT = 0.00041302329 s
 Time = 0.14621024 s
 Simulation completed = 29.242049%

Time Step =355
 deltaT = 0.00041302329 s
 Time = 0.14662327 s
 Simulation completed = 29.324653%

Time Step =356
 deltaT = 0.00041302329 s
 Time = 0.14703629 s
 Simulation completed = 29.407258%

Time Step =357
 deltaT = 0.00041302329 s
 Time = 0.14744931 s
 Simulation completed = 29.489863%

Time Step =358
 deltaT = 0.00041302329 s
 Time = 0.14786234 s
 Simulation completed = 29.572467%

Time Step =359
 deltaT = 0.00041302329 s
 Time = 0.14827536 s
 Simulation completed = 29.655072%

Time Step =360
 deltaT = 0.00041302329 s
 Time = 0.14868838 s
 Simulation completed = 29.737677%

Time Step =361
 deltaT = 0.00041302329 s
 Time = 0.14910141 s
 Simulation completed = 29.820281%

Time Step =362
 deltaT = 0.00041302329 s
 Time = 0.14951443 s
 Simulation completed = 29.902886%

Time Step =363
 deltaT = 0.00041302329 s
 Time = 0.14992745 s
 Simulation completed = 29.985491%

Time Step =364
 deltaT = 0.00041302329 s
 Time = 0.15034048 s
 Simulation completed = 30.068095%

Time Step =365
 deltaT = 0.00041302329 s
 Time = 0.1507535 s
 Simulation completed = 30.1507%

Time Step =366
 deltaT = 0.00041302329 s
 Time = 0.15116652 s
 Simulation completed = 30.233305%

Time Step =367
 deltaT = 0.00041302329 s
 Time = 0.15157955 s
 Simulation completed = 30.315909%

Time Step =368
 deltaT = 0.00041302329 s
 Time = 0.15199257 s
 Simulation completed = 30.398514%

Time Step =369
 deltaT = 0.00041302329 s
 Time = 0.15240559 s
 Simulation completed = 30.481119%

Time Step =370
 deltaT = 0.00041302329 s
 Time = 0.15281862 s
 Simulation completed = 30.563723%

Time Step =371
 deltaT = 0.00041302329 s
 Time = 0.15323164 s
 Simulation completed = 30.646328%

Time Step =372
 deltaT = 0.00041302329 s
 Time = 0.15364466 s
 Simulation completed = 30.728933%

Time Step =373
 deltaT = 0.00041302329 s
 Time = 0.15405769 s
 Simulation completed = 30.811537%

Time Step =374
 deltaT = 0.00041302329 s
 Time = 0.15447071 s
 Simulation completed = 30.894142%

Time Step =375
 deltaT = 0.00041302329 s
 Time = 0.15488373 s
 Simulation completed = 30.976746%

Time Step =376
 deltaT = 0.00041302329 s
 Time = 0.15529676 s
 Simulation completed = 31.059351%

Time Step =377
 deltaT = 0.00041302329 s
 Time = 0.15570978 s
 Simulation completed = 31.141956%

Time Step =378
 deltaT = 0.00041302329 s
 Time = 0.1561228 s
 Simulation completed = 31.22456%

Time Step =379
 deltaT = 0.00041302329 s
 Time = 0.15653583 s
 Simulation completed = 31.307165%

Time Step =380
 deltaT = 0.00041302329 s
 Time = 0.15694885 s
 Simulation completed = 31.38977%

Time Step =381
 deltaT = 0.00041302329 s
 Time = 0.15736187 s
 Simulation completed = 31.472374%

Time Step =382
 deltaT = 0.00041302329 s
 Time = 0.1577749 s
 Simulation completed = 31.554979%

Time Step =383
 deltaT = 0.00041302329 s
 Time = 0.15818792 s
 Simulation completed = 31.637584%

Time Step =384
 deltaT = 0.00041302329 s
 Time = 0.15860094 s
 Simulation completed = 31.720188%

Time Step =385
 deltaT = 0.00041302329 s
 Time = 0.15901397 s
 Simulation completed = 31.802793%

Time Step =386
 deltaT = 0.00041302329 s
 Time = 0.15942699 s
 Simulation completed = 31.885398%

Time Step =387
 deltaT = 0.00041302329 s
 Time = 0.15984001 s
 Simulation completed = 31.968002%

Time Step =388
 deltaT = 0.00041302329 s
 Time = 0.16025304 s
 Simulation completed = 32.050607%

Time Step =389
 deltaT = 0.00041302329 s
 Time = 0.16066606 s
 Simulation completed = 32.133212%

Time Step =390
 deltaT = 0.00041302329 s
 Time = 0.16107908 s
 Simulation completed = 32.215816%

Time Step =391
 deltaT = 0.00041302329 s
 Time = 0.16149211 s
 Simulation completed = 32.298421%

Time Step =392
 deltaT = 0.00041302329 s
 Time = 0.16190513 s
 Simulation completed = 32.381026%

Time Step =393
 deltaT = 0.00041302329 s
 Time = 0.16231815 s
 Simulation completed = 32.46363%

Time Step =394
 deltaT = 0.00041302329 s
 Time = 0.16273117 s
 Simulation completed = 32.546235%

Time Step =395
 deltaT = 0.00041302329 s
 Time = 0.1631442 s
 Simulation completed = 32.62884%

Time Step =396
 deltaT = 0.00041302329 s
 Time = 0.16355722 s
 Simulation completed = 32.711444%

Time Step =397
 deltaT = 0.00041302329 s
 Time = 0.16397024 s
 Simulation completed = 32.794049%

Time Step =398
 deltaT = 0.00041302329 s
 Time = 0.16438327 s
 Simulation completed = 32.876654%

Time Step =399
 deltaT = 0.00041302329 s
 Time = 0.16479629 s
 Simulation completed = 32.959258%

Time Step =400
 deltaT = 0.00041302329 s
 Time = 0.16520931 s
 Simulation completed = 33.041863%

Time Step =401
 deltaT = 0.00041302329 s
 Time = 0.16562234 s
 Simulation completed = 33.124468%

Time Step =402
 deltaT = 0.00041302329 s
 Time = 0.16603536 s
 Simulation completed = 33.207072%

Time Step =403
 deltaT = 0.00041302329 s
 Time = 0.16644838 s
 Simulation completed = 33.289677%

Time Step =404
 deltaT = 0.00041302329 s
 Time = 0.16686141 s
 Simulation completed = 33.372282%

Time Step =405
 deltaT = 0.00041302329 s
 Time = 0.16727443 s
 Simulation completed = 33.454886%

Time Step =406
 deltaT = 0.00041302329 s
 Time = 0.16768745 s
 Simulation completed = 33.537491%

Time Step =407
 deltaT = 0.00041302329 s
 Time = 0.16810048 s
 Simulation completed = 33.620096%

Time Step =408
 deltaT = 0.00041302329 s
 Time = 0.1685135 s
 Simulation completed = 33.7027%

Time Step =409
 deltaT = 0.00041302329 s
 Time = 0.16892652 s
 Simulation completed = 33.785305%

Time Step =410
 deltaT = 0.00041302329 s
 Time = 0.16933955 s
 Simulation completed = 33.86791%

Time Step =411
 deltaT = 0.00041302329 s
 Time = 0.16975257 s
 Simulation completed = 33.950514%

Time Step =412
 deltaT = 0.00041302329 s
 Time = 0.17016559 s
 Simulation completed = 34.033119%

Time Step =413
 deltaT = 0.00041302329 s
 Time = 0.17057862 s
 Simulation completed = 34.115723%

Time Step =414
 deltaT = 0.00041302329 s
 Time = 0.17099164 s
 Simulation completed = 34.198328%

Time Step =415
 deltaT = 0.00041302329 s
 Time = 0.17140466 s
 Simulation completed = 34.280933%

Time Step =416
 deltaT = 0.00041302329 s
 Time = 0.17181769 s
 Simulation completed = 34.363537%

Time Step =417
 deltaT = 0.00041302329 s
 Time = 0.17223071 s
 Simulation completed = 34.446142%

Time Step =418
 deltaT = 0.00041302329 s
 Time = 0.17264373 s
 Simulation completed = 34.528747%

Time Step =419
 deltaT = 0.00041302329 s
 Time = 0.17305676 s
 Simulation completed = 34.611351%

Time Step =420
 deltaT = 0.00041302329 s
 Time = 0.17346978 s
 Simulation completed = 34.693956%

Time Step =421
 deltaT = 0.00041302329 s
 Time = 0.1738828 s
 Simulation completed = 34.776561%

Time Step =422
 deltaT = 0.00041302329 s
 Time = 0.17429583 s
 Simulation completed = 34.859165%

Time Step =423
 deltaT = 0.00041302329 s
 Time = 0.17470885 s
 Simulation completed = 34.94177%

Time Step =424
 deltaT = 0.00041302329 s
 Time = 0.17512187 s
 Simulation completed = 35.024375%

Time Step =425
 deltaT = 0.00041302329 s
 Time = 0.1755349 s
 Simulation completed = 35.106979%

Time Step =426
 deltaT = 0.00041302329 s
 Time = 0.17594792 s
 Simulation completed = 35.189584%

Time Step =427
 deltaT = 0.00041302329 s
 Time = 0.17636094 s
 Simulation completed = 35.272189%

Time Step =428
 deltaT = 0.00041302329 s
 Time = 0.17677397 s
 Simulation completed = 35.354793%

Time Step =429
 deltaT = 0.00041302329 s
 Time = 0.17718699 s
 Simulation completed = 35.437398%

Time Step =430
 deltaT = 0.00041302329 s
 Time = 0.17760001 s
 Simulation completed = 35.520003%

Time Step =431
 deltaT = 0.00041302329 s
 Time = 0.17801304 s
 Simulation completed = 35.602607%

Time Step =432
 deltaT = 0.00041302329 s
 Time = 0.17842606 s
 Simulation completed = 35.685212%

Time Step =433
 deltaT = 0.00041302329 s
 Time = 0.17883908 s
 Simulation completed = 35.767817%

Time Step =434
 deltaT = 0.00041302329 s
 Time = 0.17925211 s
 Simulation completed = 35.850421%

Time Step =435
 deltaT = 0.00041302329 s
 Time = 0.17966513 s
 Simulation completed = 35.933026%

Time Step =436
 deltaT = 0.00041302329 s
 Time = 0.18007815 s
 Simulation completed = 36.015631%

Time Step =437
 deltaT = 0.00041302329 s
 Time = 0.18049118 s
 Simulation completed = 36.098235%

Time Step =438
 deltaT = 0.00041302329 s
 Time = 0.1809042 s
 Simulation completed = 36.18084%

Time Step =439
 deltaT = 0.00041302329 s
 Time = 0.18131722 s
 Simulation completed = 36.263445%

Time Step =440
 deltaT = 0.00041302329 s
 Time = 0.18173025 s
 Simulation completed = 36.346049%

Time Step =441
 deltaT = 0.00041302329 s
 Time = 0.18214327 s
 Simulation completed = 36.428654%

Time Step =442
 deltaT = 0.00041302329 s
 Time = 0.18255629 s
 Simulation completed = 36.511259%

Time Step =443
 deltaT = 0.00041302329 s
 Time = 0.18296932 s
 Simulation completed = 36.593863%

Time Step =444
 deltaT = 0.00041302329 s
 Time = 0.18338234 s
 Simulation completed = 36.676468%

Time Step =445
 deltaT = 0.00041302329 s
 Time = 0.18379536 s
 Simulation completed = 36.759073%

Time Step =446
 deltaT = 0.00041302329 s
 Time = 0.18420839 s
 Simulation completed = 36.841677%

Time Step =447
 deltaT = 0.00041302329 s
 Time = 0.18462141 s
 Simulation completed = 36.924282%

Time Step =448
 deltaT = 0.00041302329 s
 Time = 0.18503443 s
 Simulation completed = 37.006886%

Time Step =449
 deltaT = 0.00041302329 s
 Time = 0.18544746 s
 Simulation completed = 37.089491%

Time Step =450
 deltaT = 0.00041302329 s
 Time = 0.18586048 s
 Simulation completed = 37.172096%

Time Step =451
 deltaT = 0.00041302329 s
 Time = 0.1862735 s
 Simulation completed = 37.2547%

Time Step =452
 deltaT = 0.00041302329 s
 Time = 0.18668653 s
 Simulation completed = 37.337305%

Time Step =453
 deltaT = 0.00041302329 s
 Time = 0.18709955 s
 Simulation completed = 37.41991%

Time Step =454
 deltaT = 0.00041302329 s
 Time = 0.18751257 s
 Simulation completed = 37.502514%

Time Step =455
 deltaT = 0.00041302329 s
 Time = 0.1879256 s
 Simulation completed = 37.585119%

Time Step =456
 deltaT = 0.00041302329 s
 Time = 0.18833862 s
 Simulation completed = 37.667724%

Time Step =457
 deltaT = 0.00041302329 s
 Time = 0.18875164 s
 Simulation completed = 37.750328%

Time Step =458
 deltaT = 0.00041302329 s
 Time = 0.18916467 s
 Simulation completed = 37.832933%

Time Step =459
 deltaT = 0.00041302329 s
 Time = 0.18957769 s
 Simulation completed = 37.915538%

Time Step =460
 deltaT = 0.00041302329 s
 Time = 0.18999071 s
 Simulation completed = 37.998142%

Time Step =461
 deltaT = 0.00041302329 s
 Time = 0.19040374 s
 Simulation completed = 38.080747%

Time Step =462
 deltaT = 0.00041302329 s
 Time = 0.19081676 s
 Simulation completed = 38.163352%

Time Step =463
 deltaT = 0.00041302329 s
 Time = 0.19122978 s
 Simulation completed = 38.245956%

Time Step =464
 deltaT = 0.00041302329 s
 Time = 0.1916428 s
 Simulation completed = 38.328561%

Time Step =465
 deltaT = 0.00041302329 s
 Time = 0.19205583 s
 Simulation completed = 38.411166%

Time Step =466
 deltaT = 0.00041302329 s
 Time = 0.19246885 s
 Simulation completed = 38.49377%

Time Step =467
 deltaT = 0.00041302329 s
 Time = 0.19288187 s
 Simulation completed = 38.576375%

Time Step =468
 deltaT = 0.00041302329 s
 Time = 0.1932949 s
 Simulation completed = 38.65898%

Time Step =469
 deltaT = 0.00041302329 s
 Time = 0.19370792 s
 Simulation completed = 38.741584%

Time Step =470
 deltaT = 0.00041302329 s
 Time = 0.19412094 s
 Simulation completed = 38.824189%

Time Step =471
 deltaT = 0.00041302329 s
 Time = 0.19453397 s
 Simulation completed = 38.906794%

Time Step =472
 deltaT = 0.00041302329 s
 Time = 0.19494699 s
 Simulation completed = 38.989398%

Time Step =473
 deltaT = 0.00041302329 s
 Time = 0.19536001 s
 Simulation completed = 39.072003%

Time Step =474
 deltaT = 0.00041302329 s
 Time = 0.19577304 s
 Simulation completed = 39.154608%

Time Step =475
 deltaT = 0.00041302329 s
 Time = 0.19618606 s
 Simulation completed = 39.237212%

Time Step =476
 deltaT = 0.00041302329 s
 Time = 0.19659908 s
 Simulation completed = 39.319817%

Time Step =477
 deltaT = 0.00041302329 s
 Time = 0.19701211 s
 Simulation completed = 39.402422%

Time Step =478
 deltaT = 0.00041302329 s
 Time = 0.19742513 s
 Simulation completed = 39.485026%

Time Step =479
 deltaT = 0.00041302329 s
 Time = 0.19783815 s
 Simulation completed = 39.567631%

Time Step =480
 deltaT = 0.00041302329 s
 Time = 0.19825118 s
 Simulation completed = 39.650236%

Time Step =481
 deltaT = 0.00041302329 s
 Time = 0.1986642 s
 Simulation completed = 39.73284%

Time Step =482
 deltaT = 0.00041302329 s
 Time = 0.19907722 s
 Simulation completed = 39.815445%

Time Step =483
 deltaT = 0.00041302329 s
 Time = 0.19949025 s
 Simulation completed = 39.898049%

Time Step =484
 deltaT = 0.00041302329 s
 Time = 0.19990327 s
CoG: 7.5720936 7.5720936 -4.9778649e-15
sample lm      : (1060.7054 1060.7054 3.6234819e-11)

sample pR      : (1000 1000 3.4161059e-11)

sample tC2     : (577.35027 -577.35027 -577.35027 577.35027 -577.35027 -577.35027 5.0637386e-12 -5.0637386e-12 -5.0637386e-12)

sample wC      : (-8.0156009e-19 8.0156009e-19 8.0156009e-19 -6.8196459e-18 6.8196459e-18 6.8196459e-18 0 -0 -0)

sample lambdaH : 0.96075672
sample rhsLm2  : (-0 0 0)
sample rhsLm3  : (6.4409285 6.4409285 2.2134325e-13)
 Simulation completed = 39.980654%

Time Step =485
 deltaT = 0.00041302329 s
 Time = 0.20031629 s
 Simulation completed = 40.063259%

Time Step =486
 deltaT = 0.00041302329 s
 Time = 0.20072932 s
 Simulation completed = 40.145863%

Time Step =487
 deltaT = 0.00041302329 s
 Time = 0.20114234 s
 Simulation completed = 40.228468%

Time Step =488
 deltaT = 0.00041302329 s
 Time = 0.20155536 s
 Simulation completed = 40.311073%

Time Step =489
 deltaT = 0.00041302329 s
 Time = 0.20196839 s
 Simulation completed = 40.393677%

Time Step =490
 deltaT = 0.00041302329 s
 Time = 0.20238141 s
 Simulation completed = 40.476282%

Time Step =491
 deltaT = 0.00041302329 s
 Time = 0.20279443 s
 Simulation completed = 40.558887%

Time Step =492
 deltaT = 0.00041302329 s
 Time = 0.20320746 s
 Simulation completed = 40.641491%

Time Step =493
 deltaT = 0.00041302329 s
 Time = 0.20362048 s
 Simulation completed = 40.724096%

Time Step =494
 deltaT = 0.00041302329 s
 Time = 0.2040335 s
 Simulation completed = 40.806701%

Time Step =495
 deltaT = 0.00041302329 s
 Time = 0.20444653 s
 Simulation completed = 40.889305%

Time Step =496
 deltaT = 0.00041302329 s
 Time = 0.20485955 s
 Simulation completed = 40.97191%

Time Step =497
 deltaT = 0.00041302329 s
 Time = 0.20527257 s
 Simulation completed = 41.054515%

Time Step =498
 deltaT = 0.00041302329 s
 Time = 0.2056856 s
 Simulation completed = 41.137119%

Time Step =499
 deltaT = 0.00041302329 s
 Time = 0.20609862 s
 Simulation completed = 41.219724%

Time Step =500
 deltaT = 0.00041302329 s
 Time = 0.20651164 s
 Simulation completed = 41.302329%

Time Step =501
 deltaT = 0.00041302329 s
 Time = 0.20692467 s
 Simulation completed = 41.384933%

Time Step =502
 deltaT = 0.00041302329 s
 Time = 0.20733769 s
 Simulation completed = 41.467538%

Time Step =503
 deltaT = 0.00041302329 s
 Time = 0.20775071 s
 Simulation completed = 41.550143%

Time Step =504
 deltaT = 0.00041302329 s
 Time = 0.20816374 s
 Simulation completed = 41.632747%

Time Step =505
 deltaT = 0.00041302329 s
 Time = 0.20857676 s
 Simulation completed = 41.715352%

Time Step =506
 deltaT = 0.00041302329 s
 Time = 0.20898978 s
 Simulation completed = 41.797957%

Time Step =507
 deltaT = 0.00041302329 s
 Time = 0.20940281 s
 Simulation completed = 41.880561%

Time Step =508
 deltaT = 0.00041302329 s
 Time = 0.20981583 s
 Simulation completed = 41.963166%

Time Step =509
 deltaT = 0.00041302329 s
 Time = 0.21022885 s
 Simulation completed = 42.045771%

Time Step =510
 deltaT = 0.00041302329 s
 Time = 0.21064188 s
 Simulation completed = 42.128375%

Time Step =511
 deltaT = 0.00041302329 s
 Time = 0.2110549 s
 Simulation completed = 42.21098%

Time Step =512
 deltaT = 0.00041302329 s
 Time = 0.21146792 s
 Simulation completed = 42.293585%

Time Step =513
 deltaT = 0.00041302329 s
 Time = 0.21188095 s
 Simulation completed = 42.376189%

Time Step =514
 deltaT = 0.00041302329 s
 Time = 0.21229397 s
 Simulation completed = 42.458794%

Time Step =515
 deltaT = 0.00041302329 s
 Time = 0.21270699 s
 Simulation completed = 42.541399%

Time Step =516
 deltaT = 0.00041302329 s
 Time = 0.21312002 s
 Simulation completed = 42.624003%

Time Step =517
 deltaT = 0.00041302329 s
 Time = 0.21353304 s
 Simulation completed = 42.706608%

Time Step =518
 deltaT = 0.00041302329 s
 Time = 0.21394606 s
 Simulation completed = 42.789212%

Time Step =519
 deltaT = 0.00041302329 s
 Time = 0.21435909 s
 Simulation completed = 42.871817%

Time Step =520
 deltaT = 0.00041302329 s
 Time = 0.21477211 s
 Simulation completed = 42.954422%

Time Step =521
 deltaT = 0.00041302329 s
 Time = 0.21518513 s
 Simulation completed = 43.037026%

Time Step =522
 deltaT = 0.00041302329 s
 Time = 0.21559816 s
 Simulation completed = 43.119631%

Time Step =523
 deltaT = 0.00041302329 s
 Time = 0.21601118 s
 Simulation completed = 43.202236%

Time Step =524
 deltaT = 0.00041302329 s
 Time = 0.2164242 s
 Simulation completed = 43.28484%

Time Step =525
 deltaT = 0.00041302329 s
 Time = 0.21683723 s
 Simulation completed = 43.367445%

Time Step =526
 deltaT = 0.00041302329 s
 Time = 0.21725025 s
 Simulation completed = 43.45005%

Time Step =527
 deltaT = 0.00041302329 s
 Time = 0.21766327 s
 Simulation completed = 43.532654%

Time Step =528
 deltaT = 0.00041302329 s
 Time = 0.2180763 s
 Simulation completed = 43.615259%

Time Step =529
 deltaT = 0.00041302329 s
 Time = 0.21848932 s
 Simulation completed = 43.697864%

Time Step =530
 deltaT = 0.00041302329 s
 Time = 0.21890234 s
 Simulation completed = 43.780468%

Time Step =531
 deltaT = 0.00041302329 s
 Time = 0.21931537 s
 Simulation completed = 43.863073%

Time Step =532
 deltaT = 0.00041302329 s
 Time = 0.21972839 s
 Simulation completed = 43.945678%

Time Step =533
 deltaT = 0.00041302329 s
 Time = 0.22014141 s
 Simulation completed = 44.028282%

Time Step =534
 deltaT = 0.00041302329 s
 Time = 0.22055444 s
 Simulation completed = 44.110887%

Time Step =535
 deltaT = 0.00041302329 s
 Time = 0.22096746 s
 Simulation completed = 44.193492%

Time Step =536
 deltaT = 0.00041302329 s
 Time = 0.22138048 s
 Simulation completed = 44.276096%

Time Step =537
 deltaT = 0.00041302329 s
 Time = 0.2217935 s
 Simulation completed = 44.358701%

Time Step =538
 deltaT = 0.00041302329 s
 Time = 0.22220653 s
 Simulation completed = 44.441306%

Time Step =539
 deltaT = 0.00041302329 s
 Time = 0.22261955 s
 Simulation completed = 44.52391%

Time Step =540
 deltaT = 0.00041302329 s
 Time = 0.22303257 s
 Simulation completed = 44.606515%

Time Step =541
 deltaT = 0.00041302329 s
 Time = 0.2234456 s
 Simulation completed = 44.68912%

Time Step =542
 deltaT = 0.00041302329 s
 Time = 0.22385862 s
 Simulation completed = 44.771724%

Time Step =543
 deltaT = 0.00041302329 s
 Time = 0.22427164 s
 Simulation completed = 44.854329%

Time Step =544
 deltaT = 0.00041302329 s
 Time = 0.22468467 s
 Simulation completed = 44.936934%

Time Step =545
 deltaT = 0.00041302329 s
 Time = 0.22509769 s
 Simulation completed = 45.019538%

Time Step =546
 deltaT = 0.00041302329 s
 Time = 0.22551071 s
 Simulation completed = 45.102143%

Time Step =547
 deltaT = 0.00041302329 s
 Time = 0.22592374 s
 Simulation completed = 45.184748%

Time Step =548
 deltaT = 0.00041302329 s
 Time = 0.22633676 s
 Simulation completed = 45.267352%

Time Step =549
 deltaT = 0.00041302329 s
 Time = 0.22674978 s
 Simulation completed = 45.349957%

Time Step =550
 deltaT = 0.00041302329 s
 Time = 0.22716281 s
 Simulation completed = 45.432562%

Time Step =551
 deltaT = 0.00041302329 s
 Time = 0.22757583 s
 Simulation completed = 45.515166%

Time Step =552
 deltaT = 0.00041302329 s
 Time = 0.22798885 s
 Simulation completed = 45.597771%

Time Step =553
 deltaT = 0.00041302329 s
 Time = 0.22840188 s
 Simulation completed = 45.680376%

Time Step =554
 deltaT = 0.00041302329 s
 Time = 0.2288149 s
 Simulation completed = 45.76298%

Time Step =555
 deltaT = 0.00041302329 s
 Time = 0.22922792 s
 Simulation completed = 45.845585%

Time Step =556
 deltaT = 0.00041302329 s
 Time = 0.22964095 s
 Simulation completed = 45.928189%

Time Step =557
 deltaT = 0.00041302329 s
 Time = 0.23005397 s
 Simulation completed = 46.010794%

Time Step =558
 deltaT = 0.00041302329 s
 Time = 0.23046699 s
 Simulation completed = 46.093399%

Time Step =559
 deltaT = 0.00041302329 s
 Time = 0.23088002 s
 Simulation completed = 46.176003%

Time Step =560
 deltaT = 0.00041302329 s
 Time = 0.23129304 s
 Simulation completed = 46.258608%

Time Step =561
 deltaT = 0.00041302329 s
 Time = 0.23170606 s
 Simulation completed = 46.341213%

Time Step =562
 deltaT = 0.00041302329 s
 Time = 0.23211909 s
 Simulation completed = 46.423817%

Time Step =563
 deltaT = 0.00041302329 s
 Time = 0.23253211 s
 Simulation completed = 46.506422%

Time Step =564
 deltaT = 0.00041302329 s
 Time = 0.23294513 s
 Simulation completed = 46.589027%

Time Step =565
 deltaT = 0.00041302329 s
 Time = 0.23335816 s
 Simulation completed = 46.671631%

Time Step =566
 deltaT = 0.00041302329 s
 Time = 0.23377118 s
 Simulation completed = 46.754236%

Time Step =567
 deltaT = 0.00041302329 s
 Time = 0.2341842 s
 Simulation completed = 46.836841%

Time Step =568
 deltaT = 0.00041302329 s
 Time = 0.23459723 s
 Simulation completed = 46.919445%

Time Step =569
 deltaT = 0.00041302329 s
 Time = 0.23501025 s
 Simulation completed = 47.00205%

Time Step =570
 deltaT = 0.00041302329 s
 Time = 0.23542327 s
 Simulation completed = 47.084655%

Time Step =571
 deltaT = 0.00041302329 s
 Time = 0.2358363 s
 Simulation completed = 47.167259%

Time Step =572
 deltaT = 0.00041302329 s
 Time = 0.23624932 s
 Simulation completed = 47.249864%

Time Step =573
 deltaT = 0.00041302329 s
 Time = 0.23666234 s
 Simulation completed = 47.332469%

Time Step =574
 deltaT = 0.00041302329 s
 Time = 0.23707537 s
 Simulation completed = 47.415073%

Time Step =575
 deltaT = 0.00041302329 s
 Time = 0.23748839 s
 Simulation completed = 47.497678%

Time Step =576
 deltaT = 0.00041302329 s
 Time = 0.23790141 s
 Simulation completed = 47.580283%

Time Step =577
 deltaT = 0.00041302329 s
 Time = 0.23831444 s
 Simulation completed = 47.662887%

Time Step =578
 deltaT = 0.00041302329 s
 Time = 0.23872746 s
 Simulation completed = 47.745492%

Time Step =579
 deltaT = 0.00041302329 s
 Time = 0.23914048 s
 Simulation completed = 47.828097%

Time Step =580
 deltaT = 0.00041302329 s
 Time = 0.23955351 s
 Simulation completed = 47.910701%

Time Step =581
 deltaT = 0.00041302329 s
 Time = 0.23996653 s
 Simulation completed = 47.993306%

Time Step =582
 deltaT = 0.00041302329 s
 Time = 0.24037955 s
 Simulation completed = 48.075911%

Time Step =583
 deltaT = 0.00041302329 s
 Time = 0.24079258 s
 Simulation completed = 48.158515%

Time Step =584
 deltaT = 0.00041302329 s
 Time = 0.2412056 s
 Simulation completed = 48.24112%

Time Step =585
 deltaT = 0.00041302329 s
 Time = 0.24161862 s
 Simulation completed = 48.323725%

Time Step =586
 deltaT = 0.00041302329 s
 Time = 0.24203165 s
 Simulation completed = 48.406329%

Time Step =587
 deltaT = 0.00041302329 s
 Time = 0.24244467 s
 Simulation completed = 48.488934%

Time Step =588
 deltaT = 0.00041302329 s
 Time = 0.24285769 s
 Simulation completed = 48.571539%

Time Step =589
 deltaT = 0.00041302329 s
 Time = 0.24327072 s
 Simulation completed = 48.654143%

Time Step =590
 deltaT = 0.00041302329 s
 Time = 0.24368374 s
 Simulation completed = 48.736748%

Time Step =591
 deltaT = 0.00041302329 s
 Time = 0.24409676 s
 Simulation completed = 48.819352%

Time Step =592
 deltaT = 0.00041302329 s
 Time = 0.24450979 s
 Simulation completed = 48.901957%

Time Step =593
 deltaT = 0.00041302329 s
 Time = 0.24492281 s
 Simulation completed = 48.984562%

Time Step =594
 deltaT = 0.00041302329 s
 Time = 0.24533583 s
 Simulation completed = 49.067166%

Time Step =595
 deltaT = 0.00041302329 s
 Time = 0.24574886 s
 Simulation completed = 49.149771%

Time Step =596
 deltaT = 0.00041302329 s
 Time = 0.24616188 s
 Simulation completed = 49.232376%

Time Step =597
 deltaT = 0.00041302329 s
 Time = 0.2465749 s
 Simulation completed = 49.31498%

Time Step =598
 deltaT = 0.00041302329 s
 Time = 0.24698793 s
 Simulation completed = 49.397585%

Time Step =599
 deltaT = 0.00041302329 s
 Time = 0.24740095 s
 Simulation completed = 49.48019%

Time Step =600
 deltaT = 0.00041302329 s
 Time = 0.24781397 s
 Simulation completed = 49.562794%

Time Step =601
 deltaT = 0.00041302329 s
 Time = 0.248227 s
 Simulation completed = 49.645399%

Time Step =602
 deltaT = 0.00041302329 s
 Time = 0.24864002 s
 Simulation completed = 49.728004%

Time Step =603
 deltaT = 0.00041302329 s
 Time = 0.24905304 s
 Simulation completed = 49.810608%

Time Step =604
 deltaT = 0.00041302329 s
 Time = 0.24946607 s
 Simulation completed = 49.893213%

Time Step =605
 deltaT = 0.00041302329 s
 Time = 0.24987909 s
 Simulation completed = 49.975818%

Time Step =606
 deltaT = 0.00041302329 s
 Time = 0.25029211 s
 Simulation completed = 50.058422%

Time Step =607
 deltaT = 0.00041302329 s
 Time = 0.25070513 s
 Simulation completed = 50.141027%

Time Step =608
 deltaT = 0.00041302329 s
 Time = 0.25111816 s
 Simulation completed = 50.223632%

Time Step =609
 deltaT = 0.00041302329 s
 Time = 0.25153118 s
 Simulation completed = 50.306236%

Time Step =610
 deltaT = 0.00041302329 s
 Time = 0.2519442 s
 Simulation completed = 50.388841%

Time Step =611
 deltaT = 0.00041302329 s
 Time = 0.25235723 s
 Simulation completed = 50.471446%

Time Step =612
 deltaT = 0.00041302329 s
 Time = 0.25277025 s
 Simulation completed = 50.55405%

Time Step =613
 deltaT = 0.00041302329 s
 Time = 0.25318327 s
 Simulation completed = 50.636655%

Time Step =614
 deltaT = 0.00041302329 s
 Time = 0.2535963 s
 Simulation completed = 50.71926%

Time Step =615
 deltaT = 0.00041302329 s
 Time = 0.25400932 s
 Simulation completed = 50.801864%

Time Step =616
 deltaT = 0.00041302329 s
 Time = 0.25442234 s
 Simulation completed = 50.884469%

Time Step =617
 deltaT = 0.00041302329 s
 Time = 0.25483537 s
 Simulation completed = 50.967074%

Time Step =618
 deltaT = 0.00041302329 s
 Time = 0.25524839 s
 Simulation completed = 51.049678%

Time Step =619
 deltaT = 0.00041302329 s
 Time = 0.25566141 s
 Simulation completed = 51.132283%

Time Step =620
 deltaT = 0.00041302329 s
 Time = 0.25607444 s
 Simulation completed = 51.214888%

Time Step =621
 deltaT = 0.00041302329 s
 Time = 0.25648746 s
 Simulation completed = 51.297492%

Time Step =622
 deltaT = 0.00041302329 s
 Time = 0.25690048 s
 Simulation completed = 51.380097%

Time Step =623
 deltaT = 0.00041302329 s
 Time = 0.25731351 s
 Simulation completed = 51.462702%

Time Step =624
 deltaT = 0.00041302329 s
 Time = 0.25772653 s
 Simulation completed = 51.545306%

Time Step =625
 deltaT = 0.00041302329 s
 Time = 0.25813955 s
 Simulation completed = 51.627911%

Time Step =626
 deltaT = 0.00041302329 s
 Time = 0.25855258 s
 Simulation completed = 51.710515%

Time Step =627
 deltaT = 0.00041302329 s
 Time = 0.2589656 s
 Simulation completed = 51.79312%

Time Step =628
 deltaT = 0.00041302329 s
 Time = 0.25937862 s
 Simulation completed = 51.875725%

Time Step =629
 deltaT = 0.00041302329 s
 Time = 0.25979165 s
 Simulation completed = 51.958329%

Time Step =630
 deltaT = 0.00041302329 s
 Time = 0.26020467 s
 Simulation completed = 52.040934%

Time Step =631
 deltaT = 0.00041302329 s
 Time = 0.26061769 s
 Simulation completed = 52.123539%

Time Step =632
 deltaT = 0.00041302329 s
 Time = 0.26103072 s
 Simulation completed = 52.206143%

Time Step =633
 deltaT = 0.00041302329 s
 Time = 0.26144374 s
 Simulation completed = 52.288748%

Time Step =634
 deltaT = 0.00041302329 s
 Time = 0.26185676 s
 Simulation completed = 52.371353%

Time Step =635
 deltaT = 0.00041302329 s
 Time = 0.26226979 s
 Simulation completed = 52.453957%

Time Step =636
 deltaT = 0.00041302329 s
 Time = 0.26268281 s
 Simulation completed = 52.536562%

Time Step =637
 deltaT = 0.00041302329 s
 Time = 0.26309583 s
 Simulation completed = 52.619167%

Time Step =638
 deltaT = 0.00041302329 s
 Time = 0.26350886 s
 Simulation completed = 52.701771%

Time Step =639
 deltaT = 0.00041302329 s
 Time = 0.26392188 s
 Simulation completed = 52.784376%

Time Step =640
 deltaT = 0.00041302329 s
 Time = 0.2643349 s
 Simulation completed = 52.866981%

Time Step =641
 deltaT = 0.00041302329 s
 Time = 0.26474793 s
 Simulation completed = 52.949585%

Time Step =642
 deltaT = 0.00041302329 s
 Time = 0.26516095 s
 Simulation completed = 53.03219%

Time Step =643
 deltaT = 0.00041302329 s
 Time = 0.26557397 s
 Simulation completed = 53.114795%

Time Step =644
 deltaT = 0.00041302329 s
 Time = 0.265987 s
 Simulation completed = 53.197399%

Time Step =645
 deltaT = 0.00041302329 s
 Time = 0.26640002 s
 Simulation completed = 53.280004%

Time Step =646
 deltaT = 0.00041302329 s
 Time = 0.26681304 s
 Simulation completed = 53.362609%

Time Step =647
 deltaT = 0.00041302329 s
 Time = 0.26722607 s
 Simulation completed = 53.445213%

Time Step =648
 deltaT = 0.00041302329 s
 Time = 0.26763909 s
 Simulation completed = 53.527818%

Time Step =649
 deltaT = 0.00041302329 s
 Time = 0.26805211 s
 Simulation completed = 53.610423%

Time Step =650
 deltaT = 0.00041302329 s
 Time = 0.26846514 s
 Simulation completed = 53.693027%

Time Step =651
 deltaT = 0.00041302329 s
 Time = 0.26887816 s
 Simulation completed = 53.775632%

Time Step =652
 deltaT = 0.00041302329 s
 Time = 0.26929118 s
 Simulation completed = 53.858237%

Time Step =653
 deltaT = 0.00041302329 s
 Time = 0.26970421 s
 Simulation completed = 53.940841%

Time Step =654
 deltaT = 0.00041302329 s
 Time = 0.27011723 s
 Simulation completed = 54.023446%

Time Step =655
 deltaT = 0.00041302329 s
 Time = 0.27053025 s
 Simulation completed = 54.106051%

Time Step =656
 deltaT = 0.00041302329 s
 Time = 0.27094328 s
 Simulation completed = 54.188655%

Time Step =657
 deltaT = 0.00041302329 s
 Time = 0.2713563 s
 Simulation completed = 54.27126%

Time Step =658
 deltaT = 0.00041302329 s
 Time = 0.27176932 s
 Simulation completed = 54.353865%

Time Step =659
 deltaT = 0.00041302329 s
 Time = 0.27218235 s
 Simulation completed = 54.436469%

Time Step =660
 deltaT = 0.00041302329 s
 Time = 0.27259537 s
 Simulation completed = 54.519074%

Time Step =661
 deltaT = 0.00041302329 s
 Time = 0.27300839 s
 Simulation completed = 54.601678%

Time Step =662
 deltaT = 0.00041302329 s
 Time = 0.27342142 s
 Simulation completed = 54.684283%

Time Step =663
 deltaT = 0.00041302329 s
 Time = 0.27383444 s
 Simulation completed = 54.766888%

Time Step =664
 deltaT = 0.00041302329 s
 Time = 0.27424746 s
 Simulation completed = 54.849492%

Time Step =665
 deltaT = 0.00041302329 s
 Time = 0.27466049 s
 Simulation completed = 54.932097%

Time Step =666
 deltaT = 0.00041302329 s
 Time = 0.27507351 s
 Simulation completed = 55.014702%

Time Step =667
 deltaT = 0.00041302329 s
 Time = 0.27548653 s
 Simulation completed = 55.097306%

Time Step =668
 deltaT = 0.00041302329 s
 Time = 0.27589956 s
 Simulation completed = 55.179911%

Time Step =669
 deltaT = 0.00041302329 s
 Time = 0.27631258 s
 Simulation completed = 55.262516%

Time Step =670
 deltaT = 0.00041302329 s
 Time = 0.2767256 s
 Simulation completed = 55.34512%

Time Step =671
 deltaT = 0.00041302329 s
 Time = 0.27713863 s
 Simulation completed = 55.427725%

Time Step =672
 deltaT = 0.00041302329 s
 Time = 0.27755165 s
 Simulation completed = 55.51033%

Time Step =673
 deltaT = 0.00041302329 s
 Time = 0.27796467 s
 Simulation completed = 55.592934%

Time Step =674
 deltaT = 0.00041302329 s
 Time = 0.2783777 s
 Simulation completed = 55.675539%

Time Step =675
 deltaT = 0.00041302329 s
 Time = 0.27879072 s
 Simulation completed = 55.758144%

Time Step =676
 deltaT = 0.00041302329 s
 Time = 0.27920374 s
 Simulation completed = 55.840748%

Time Step =677
 deltaT = 0.00041302329 s
 Time = 0.27961677 s
 Simulation completed = 55.923353%

Time Step =678
 deltaT = 0.00041302329 s
 Time = 0.28002979 s
 Simulation completed = 56.005958%

Time Step =679
 deltaT = 0.00041302329 s
 Time = 0.28044281 s
 Simulation completed = 56.088562%

Time Step =680
 deltaT = 0.00041302329 s
 Time = 0.28085583 s
 Simulation completed = 56.171167%

Time Step =681
 deltaT = 0.00041302329 s
 Time = 0.28126886 s
 Simulation completed = 56.253772%

Time Step =682
 deltaT = 0.00041302329 s
 Time = 0.28168188 s
 Simulation completed = 56.336376%

Time Step =683
 deltaT = 0.00041302329 s
 Time = 0.2820949 s
 Simulation completed = 56.418981%

Time Step =684
 deltaT = 0.00041302329 s
 Time = 0.28250793 s
 Simulation completed = 56.501586%

Time Step =685
 deltaT = 0.00041302329 s
 Time = 0.28292095 s
 Simulation completed = 56.58419%

Time Step =686
 deltaT = 0.00041302329 s
 Time = 0.28333397 s
 Simulation completed = 56.666795%

Time Step =687
 deltaT = 0.00041302329 s
 Time = 0.283747 s
 Simulation completed = 56.7494%

Time Step =688
 deltaT = 0.00041302329 s
 Time = 0.28416002 s
 Simulation completed = 56.832004%

Time Step =689
 deltaT = 0.00041302329 s
 Time = 0.28457304 s
 Simulation completed = 56.914609%

Time Step =690
 deltaT = 0.00041302329 s
 Time = 0.28498607 s
 Simulation completed = 56.997214%

Time Step =691
 deltaT = 0.00041302329 s
 Time = 0.28539909 s
 Simulation completed = 57.079818%

Time Step =692
 deltaT = 0.00041302329 s
 Time = 0.28581211 s
 Simulation completed = 57.162423%

Time Step =693
 deltaT = 0.00041302329 s
 Time = 0.28622514 s
 Simulation completed = 57.245028%

Time Step =694
 deltaT = 0.00041302329 s
 Time = 0.28663816 s
 Simulation completed = 57.327632%

Time Step =695
 deltaT = 0.00041302329 s
 Time = 0.28705118 s
 Simulation completed = 57.410237%

Time Step =696
 deltaT = 0.00041302329 s
 Time = 0.28746421 s
 Simulation completed = 57.492841%

Time Step =697
 deltaT = 0.00041302329 s
 Time = 0.28787723 s
 Simulation completed = 57.575446%

Time Step =698
 deltaT = 0.00041302329 s
 Time = 0.28829025 s
 Simulation completed = 57.658051%

Time Step =699
 deltaT = 0.00041302329 s
 Time = 0.28870328 s
 Simulation completed = 57.740655%

Time Step =700
 deltaT = 0.00041302329 s
 Time = 0.2891163 s
 Simulation completed = 57.82326%

Time Step =701
 deltaT = 0.00041302329 s
 Time = 0.28952932 s
 Simulation completed = 57.905865%

Time Step =702
 deltaT = 0.00041302329 s
 Time = 0.28994235 s
 Simulation completed = 57.988469%

Time Step =703
 deltaT = 0.00041302329 s
 Time = 0.29035537 s
 Simulation completed = 58.071074%

Time Step =704
 deltaT = 0.00041302329 s
 Time = 0.29076839 s
 Simulation completed = 58.153679%

Time Step =705
 deltaT = 0.00041302329 s
 Time = 0.29118142 s
 Simulation completed = 58.236283%

Time Step =706
 deltaT = 0.00041302329 s
 Time = 0.29159444 s
 Simulation completed = 58.318888%

Time Step =707
 deltaT = 0.00041302329 s
 Time = 0.29200746 s
 Simulation completed = 58.401493%

Time Step =708
 deltaT = 0.00041302329 s
 Time = 0.29242049 s
 Simulation completed = 58.484097%

Time Step =709
 deltaT = 0.00041302329 s
 Time = 0.29283351 s
 Simulation completed = 58.566702%

Time Step =710
 deltaT = 0.00041302329 s
 Time = 0.29324653 s
 Simulation completed = 58.649307%

Time Step =711
 deltaT = 0.00041302329 s
 Time = 0.29365956 s
 Simulation completed = 58.731911%

Time Step =712
 deltaT = 0.00041302329 s
 Time = 0.29407258 s
 Simulation completed = 58.814516%

Time Step =713
 deltaT = 0.00041302329 s
 Time = 0.2944856 s
 Simulation completed = 58.897121%

Time Step =714
 deltaT = 0.00041302329 s
 Time = 0.29489863 s
 Simulation completed = 58.979725%

Time Step =715
 deltaT = 0.00041302329 s
 Time = 0.29531165 s
 Simulation completed = 59.06233%

Time Step =716
 deltaT = 0.00041302329 s
 Time = 0.29572467 s
 Simulation completed = 59.144935%

Time Step =717
 deltaT = 0.00041302329 s
 Time = 0.2961377 s
 Simulation completed = 59.227539%

Time Step =718
 deltaT = 0.00041302329 s
 Time = 0.29655072 s
 Simulation completed = 59.310144%

Time Step =719
 deltaT = 0.00041302329 s
 Time = 0.29696374 s
 Simulation completed = 59.392749%

Time Step =720
 deltaT = 0.00041302329 s
 Time = 0.29737677 s
 Simulation completed = 59.475353%

Time Step =721
 deltaT = 0.00041302329 s
 Time = 0.29778979 s
 Simulation completed = 59.557958%

Time Step =722
 deltaT = 0.00041302329 s
 Time = 0.29820281 s
 Simulation completed = 59.640563%

Time Step =723
 deltaT = 0.00041302329 s
 Time = 0.29861584 s
 Simulation completed = 59.723167%

Time Step =724
 deltaT = 0.00041302329 s
 Time = 0.29902886 s
 Simulation completed = 59.805772%

Time Step =725
 deltaT = 0.00041302329 s
 Time = 0.29944188 s
 Simulation completed = 59.888377%

Time Step =726
 deltaT = 0.00041302329 s
 Time = 0.29985491 s
CoG: 11.35814 11.35814 -5.5145212e-15
sample lm      : (1106.769 1106.769 -3.6088109e-11)

sample pR      : (1000 1000 -3.260672e-11)

sample tC2     : (577.35027 -577.35027 -577.35027 577.35027 -577.35027 -577.35027 1.4832602e-12 -1.4832602e-12 -1.4832602e-12)

sample wC      : (-7.5099946e-19 7.5099946e-19 7.5099946e-19 -4.9567767e-18 4.9567767e-18 4.9567767e-18 0 -0 -0)

sample lambdaH : 0.94785987
sample rhsLm2  : (0 0 0)
sample rhsLm3  : (6.41732 6.41732 -2.3608318e-13)
 Simulation completed = 59.970981%

Time Step =727
 deltaT = 0.00041302329 s
 Time = 0.30026793 s
 Simulation completed = 60.053586%

Time Step =728
 deltaT = 0.00041302329 s
 Time = 0.30068095 s
 Simulation completed = 60.136191%

Time Step =729
 deltaT = 0.00041302329 s
 Time = 0.30109398 s
 Simulation completed = 60.218795%

Time Step =730
 deltaT = 0.00041302329 s
 Time = 0.301507 s
 Simulation completed = 60.3014%

Time Step =731
 deltaT = 0.00041302329 s
 Time = 0.30192002 s
 Simulation completed = 60.384005%

Time Step =732
 deltaT = 0.00041302329 s
 Time = 0.30233305 s
 Simulation completed = 60.466609%

Time Step =733
 deltaT = 0.00041302329 s
 Time = 0.30274607 s
 Simulation completed = 60.549214%

Time Step =734
 deltaT = 0.00041302329 s
 Time = 0.30315909 s
 Simulation completed = 60.631818%

Time Step =735
 deltaT = 0.00041302329 s
 Time = 0.30357212 s
 Simulation completed = 60.714423%

Time Step =736
 deltaT = 0.00041302329 s
 Time = 0.30398514 s
 Simulation completed = 60.797028%

Time Step =737
 deltaT = 0.00041302329 s
 Time = 0.30439816 s
 Simulation completed = 60.879632%

Time Step =738
 deltaT = 0.00041302329 s
 Time = 0.30481119 s
 Simulation completed = 60.962237%

Time Step =739
 deltaT = 0.00041302329 s
 Time = 0.30522421 s
 Simulation completed = 61.044842%

Time Step =740
 deltaT = 0.00041302329 s
 Time = 0.30563723 s
 Simulation completed = 61.127446%

Time Step =741
 deltaT = 0.00041302329 s
 Time = 0.30605026 s
 Simulation completed = 61.210051%

Time Step =742
 deltaT = 0.00041302329 s
 Time = 0.30646328 s
 Simulation completed = 61.292656%

Time Step =743
 deltaT = 0.00041302329 s
 Time = 0.3068763 s
 Simulation completed = 61.37526%

Time Step =744
 deltaT = 0.00041302329 s
 Time = 0.30728933 s
 Simulation completed = 61.457865%

Time Step =745
 deltaT = 0.00041302329 s
 Time = 0.30770235 s
 Simulation completed = 61.54047%

Time Step =746
 deltaT = 0.00041302329 s
 Time = 0.30811537 s
 Simulation completed = 61.623074%

Time Step =747
 deltaT = 0.00041302329 s
 Time = 0.3085284 s
 Simulation completed = 61.705679%

Time Step =748
 deltaT = 0.00041302329 s
 Time = 0.30894142 s
 Simulation completed = 61.788284%

Time Step =749
 deltaT = 0.00041302329 s
 Time = 0.30935444 s
 Simulation completed = 61.870888%

Time Step =750
 deltaT = 0.00041302329 s
 Time = 0.30976746 s
 Simulation completed = 61.953493%

Time Step =751
 deltaT = 0.00041302329 s
 Time = 0.31018049 s
 Simulation completed = 62.036098%

Time Step =752
 deltaT = 0.00041302329 s
 Time = 0.31059351 s
 Simulation completed = 62.118702%

Time Step =753
 deltaT = 0.00041302329 s
 Time = 0.31100653 s
 Simulation completed = 62.201307%

Time Step =754
 deltaT = 0.00041302329 s
 Time = 0.31141956 s
 Simulation completed = 62.283912%

Time Step =755
 deltaT = 0.00041302329 s
 Time = 0.31183258 s
 Simulation completed = 62.366516%

Time Step =756
 deltaT = 0.00041302329 s
 Time = 0.3122456 s
 Simulation completed = 62.449121%

Time Step =757
 deltaT = 0.00041302329 s
 Time = 0.31265863 s
 Simulation completed = 62.531726%

Time Step =758
 deltaT = 0.00041302329 s
 Time = 0.31307165 s
 Simulation completed = 62.61433%

Time Step =759
 deltaT = 0.00041302329 s
 Time = 0.31348467 s
 Simulation completed = 62.696935%

Time Step =760
 deltaT = 0.00041302329 s
 Time = 0.3138977 s
 Simulation completed = 62.77954%

Time Step =761
 deltaT = 0.00041302329 s
 Time = 0.31431072 s
 Simulation completed = 62.862144%

Time Step =762
 deltaT = 0.00041302329 s
 Time = 0.31472374 s
 Simulation completed = 62.944749%

Time Step =763
 deltaT = 0.00041302329 s
 Time = 0.31513677 s
 Simulation completed = 63.027354%

Time Step =764
 deltaT = 0.00041302329 s
 Time = 0.31554979 s
 Simulation completed = 63.109958%

Time Step =765
 deltaT = 0.00041302329 s
 Time = 0.31596281 s
 Simulation completed = 63.192563%

Time Step =766
 deltaT = 0.00041302329 s
 Time = 0.31637584 s
 Simulation completed = 63.275168%

Time Step =767
 deltaT = 0.00041302329 s
 Time = 0.31678886 s
 Simulation completed = 63.357772%

Time Step =768
 deltaT = 0.00041302329 s
 Time = 0.31720188 s
 Simulation completed = 63.440377%

Time Step =769
 deltaT = 0.00041302329 s
 Time = 0.31761491 s
 Simulation completed = 63.522981%

Time Step =770
 deltaT = 0.00041302329 s
 Time = 0.31802793 s
 Simulation completed = 63.605586%

Time Step =771
 deltaT = 0.00041302329 s
 Time = 0.31844095 s
 Simulation completed = 63.688191%

Time Step =772
 deltaT = 0.00041302329 s
 Time = 0.31885398 s
 Simulation completed = 63.770795%

Time Step =773
 deltaT = 0.00041302329 s
 Time = 0.319267 s
 Simulation completed = 63.8534%

Time Step =774
 deltaT = 0.00041302329 s
 Time = 0.31968002 s
 Simulation completed = 63.936005%

Time Step =775
 deltaT = 0.00041302329 s
 Time = 0.32009305 s
[...]

Time Step =1015
 deltaT = 0.00041302329 s
 Time = 0.41921864 s
 Simulation completed = 83.843727%

Time Step =1016
 deltaT = 0.00041302329 s
 Time = 0.41963166 s
 Simulation completed = 83.926332%

Time Step =1017
 deltaT = 0.00041302329 s
 Time = 0.42004468 s
 Simulation completed = 84.008936%

Time Step =1018
 deltaT = 0.00041302329 s
 Time = 0.42045771 s
 Simulation completed = 84.091541%

Time Step =1019
 deltaT = 0.00041302329 s
 Time = 0.42087073 s
 Simulation completed = 84.174146%

Time Step =1020
 deltaT = 0.00041302329 s
 Time = 0.42128375 s
 Simulation completed = 84.25675%

Time Step =1021
 deltaT = 0.00041302329 s
 Time = 0.42169678 s
 Simulation completed = 84.339355%

Time Step =1022
 deltaT = 0.00041302329 s
 Time = 0.4221098 s
 Simulation completed = 84.42196%

Time Step =1023
 deltaT = 0.00041302329 s
 Time = 0.42252282 s
 Simulation completed = 84.504564%

Time Step =1024
 deltaT = 0.00041302329 s
 Time = 0.42293585 s
 Simulation completed = 84.587169%

Time Step =1025
 deltaT = 0.00041302329 s
 Time = 0.42334887 s
 Simulation completed = 84.669774%

Time Step =1026
 deltaT = 0.00041302329 s
 Time = 0.42376189 s
 Simulation completed = 84.752378%

Time Step =1027
 deltaT = 0.00041302329 s
 Time = 0.42417492 s
 Simulation completed = 84.834983%

Time Step =1028
 deltaT = 0.00041302329 s
 Time = 0.42458794 s
 Simulation completed = 84.917588%

Time Step =1029
 deltaT = 0.00041302329 s
 Time = 0.42500096 s
 Simulation completed = 85.000192%

Time Step =1030
 deltaT = 0.00041302329 s
 Time = 0.42541399 s
 Simulation completed = 85.082797%

Time Step =1031
 deltaT = 0.00041302329 s
 Time = 0.42582701 s
 Simulation completed = 85.165402%

Time Step =1032
 deltaT = 0.00041302329 s
 Time = 0.42624003 s
 Simulation completed = 85.248006%

Time Step =1033
 deltaT = 0.00041302329 s
 Time = 0.42665306 s
 Simulation completed = 85.330611%

Time Step =1034
 deltaT = 0.00041302329 s
 Time = 0.42706608 s
 Simulation completed = 85.413216%

Time Step =1035
 deltaT = 0.00041302329 s
 Time = 0.4274791 s
 Simulation completed = 85.49582%

Time Step =1036
 deltaT = 0.00041302329 s
 Time = 0.42789212 s
 Simulation completed = 85.578425%

Time Step =1037
 deltaT = 0.00041302329 s
 Time = 0.42830515 s
 Simulation completed = 85.66103%

Time Step =1038
 deltaT = 0.00041302329 s
 Time = 0.42871817 s
 Simulation completed = 85.743634%

Time Step =1039
 deltaT = 0.00041302329 s
 Time = 0.42913119 s
 Simulation completed = 85.826239%

Time Step =1040
 deltaT = 0.00041302329 s
 Time = 0.42954422 s
 Simulation completed = 85.908844%

Time Step =1041
 deltaT = 0.00041302329 s
 Time = 0.42995724 s
 Simulation completed = 85.991448%

Time Step =1042
 deltaT = 0.00041302329 s
 Time = 0.43037026 s
 Simulation completed = 86.074053%

Time Step =1043
 deltaT = 0.00041302329 s
 Time = 0.43078329 s
 Simulation completed = 86.156658%

Time Step =1044
 deltaT = 0.00041302329 s
 Time = 0.43119631 s
 Simulation completed = 86.239262%

Time Step =1045
 deltaT = 0.00041302329 s
 Time = 0.43160933 s
 Simulation completed = 86.321867%

Time Step =1046
 deltaT = 0.00041302329 s
 Time = 0.43202236 s
 Simulation completed = 86.404472%

Time Step =1047
 deltaT = 0.00041302329 s
 Time = 0.43243538 s
 Simulation completed = 86.487076%

Time Step =1048
 deltaT = 0.00041302329 s
 Time = 0.4328484 s
 Simulation completed = 86.569681%

Time Step =1049
 deltaT = 0.00041302329 s
 Time = 0.43326143 s
 Simulation completed = 86.652286%

Time Step =1050
 deltaT = 0.00041302329 s
 Time = 0.43367445 s
 Simulation completed = 86.73489%

Time Step =1051
 deltaT = 0.00041302329 s
 Time = 0.43408747 s
 Simulation completed = 86.817495%

Time Step =1052
 deltaT = 0.00041302329 s
 Time = 0.4345005 s
 Simulation completed = 86.9001%

Time Step =1053
 deltaT = 0.00041302329 s
 Time = 0.43491352 s
 Simulation completed = 86.982704%

Time Step =1054
 deltaT = 0.00041302329 s
 Time = 0.43532654 s
 Simulation completed = 87.065309%

Time Step =1055
 deltaT = 0.00041302329 s
 Time = 0.43573957 s
 Simulation completed = 87.147913%

Time Step =1056
 deltaT = 0.00041302329 s
 Time = 0.43615259 s
 Simulation completed = 87.230518%

Time Step =1057
 deltaT = 0.00041302329 s
 Time = 0.43656561 s
 Simulation completed = 87.313123%

Time Step =1058
 deltaT = 0.00041302329 s
 Time = 0.43697864 s
 Simulation completed = 87.395727%

Time Step =1059
 deltaT = 0.00041302329 s
 Time = 0.43739166 s
 Simulation completed = 87.478332%

Time Step =1060
 deltaT = 0.00041302329 s
 Time = 0.43780468 s
 Simulation completed = 87.560937%

Time Step =1061
 deltaT = 0.00041302329 s
 Time = 0.43821771 s
 Simulation completed = 87.643541%

Time Step =1062
 deltaT = 0.00041302329 s
 Time = 0.43863073 s
 Simulation completed = 87.726146%

Time Step =1063
 deltaT = 0.00041302329 s
 Time = 0.43904375 s
 Simulation completed = 87.808751%

Time Step =1064
 deltaT = 0.00041302329 s
 Time = 0.43945678 s
 Simulation completed = 87.891355%

Time Step =1065
 deltaT = 0.00041302329 s
 Time = 0.4398698 s
 Simulation completed = 87.97396%

Time Step =1066
 deltaT = 0.00041302329 s
 Time = 0.44028282 s
 Simulation completed = 88.056565%

Time Step =1067
 deltaT = 0.00041302329 s
 Time = 0.44069585 s
 Simulation completed = 88.139169%

Time Step =1068
 deltaT = 0.00041302329 s
 Time = 0.44110887 s
 Simulation completed = 88.221774%

Time Step =1069
 deltaT = 0.00041302329 s
 Time = 0.44152189 s
 Simulation completed = 88.304379%

Time Step =1070
 deltaT = 0.00041302329 s
 Time = 0.44193492 s
 Simulation completed = 88.386983%

Time Step =1071
 deltaT = 0.00041302329 s
 Time = 0.44234794 s
 Simulation completed = 88.469588%

Time Step =1072
 deltaT = 0.00041302329 s
 Time = 0.44276096 s
 Simulation completed = 88.552193%

Time Step =1073
 deltaT = 0.00041302329 s
 Time = 0.44317399 s
 Simulation completed = 88.634797%

Time Step =1074
 deltaT = 0.00041302329 s
 Time = 0.44358701 s
 Simulation completed = 88.717402%

Time Step =1075
 deltaT = 0.00041302329 s
 Time = 0.44400003 s
 Simulation completed = 88.800007%

Time Step =1076
 deltaT = 0.00041302329 s
 Time = 0.44441306 s
 Simulation completed = 88.882611%

Time Step =1077
 deltaT = 0.00041302329 s
 Time = 0.44482608 s
 Simulation completed = 88.965216%

Time Step =1078
 deltaT = 0.00041302329 s
 Time = 0.4452391 s
 Simulation completed = 89.047821%

Time Step =1079
 deltaT = 0.00041302329 s
 Time = 0.44565213 s
 Simulation completed = 89.130425%

Time Step =1080
 deltaT = 0.00041302329 s
 Time = 0.44606515 s
 Simulation completed = 89.21303%

Time Step =1081
 deltaT = 0.00041302329 s
 Time = 0.44647817 s
 Simulation completed = 89.295635%

Time Step =1082
 deltaT = 0.00041302329 s
 Time = 0.4468912 s
 Simulation completed = 89.378239%

Time Step =1083
 deltaT = 0.00041302329 s
 Time = 0.44730422 s
 Simulation completed = 89.460844%

Time Step =1084
 deltaT = 0.00041302329 s
 Time = 0.44771724 s
 Simulation completed = 89.543449%

Time Step =1085
 deltaT = 0.00041302329 s
 Time = 0.44813027 s
 Simulation completed = 89.626053%

Time Step =1086
 deltaT = 0.00041302329 s
 Time = 0.44854329 s
 Simulation completed = 89.708658%

Time Step =1087
 deltaT = 0.00041302329 s
 Time = 0.44895631 s
 Simulation completed = 89.791263%

Time Step =1088
 deltaT = 0.00041302329 s
 Time = 0.44936934 s
 Simulation completed = 89.873867%

Time Step =1089
 deltaT = 0.00041302329 s
 Time = 0.44978236 s
 Simulation completed = 89.956472%

Time Step =1090
 deltaT = 0.00041302329 s
 Time = 0.45019538 s
 Simulation completed = 90.039076%

Time Step =1091
 deltaT = 0.00041302329 s
 Time = 0.45060841 s
 Simulation completed = 90.121681%

Time Step =1092
 deltaT = 0.00041302329 s
 Time = 0.45102143 s
 Simulation completed = 90.204286%

Time Step =1093
 deltaT = 0.00041302329 s
 Time = 0.45143445 s
 Simulation completed = 90.28689%

Time Step =1094
 deltaT = 0.00041302329 s
 Time = 0.45184748 s
 Simulation completed = 90.369495%

Time Step =1095
 deltaT = 0.00041302329 s
 Time = 0.4522605 s
 Simulation completed = 90.4521%

Time Step =1096
 deltaT = 0.00041302329 s
 Time = 0.45267352 s
 Simulation completed = 90.534704%

Time Step =1097
 deltaT = 0.00041302329 s
 Time = 0.45308655 s
 Simulation completed = 90.617309%

Time Step =1098
 deltaT = 0.00041302329 s
 Time = 0.45349957 s
 Simulation completed = 90.699914%

Time Step =1099
 deltaT = 0.00041302329 s
 Time = 0.45391259 s
 Simulation completed = 90.782518%

Time Step =1100
 deltaT = 0.00041302329 s
 Time = 0.45432562 s
 Simulation completed = 90.865123%

Time Step =1101
 deltaT = 0.00041302329 s
 Time = 0.45473864 s
 Simulation completed = 90.947728%

Time Step =1102
 deltaT = 0.00041302329 s
 Time = 0.45515166 s
 Simulation completed = 91.030332%

Time Step =1103
 deltaT = 0.00041302329 s
 Time = 0.45556469 s
 Simulation completed = 91.112937%

Time Step =1104
 deltaT = 0.00041302329 s
 Time = 0.45597771 s
 Simulation completed = 91.195542%

Time Step =1105
 deltaT = 0.00041302329 s
 Time = 0.45639073 s
 Simulation completed = 91.278146%

Time Step =1106
 deltaT = 0.00041302329 s
 Time = 0.45680376 s
 Simulation completed = 91.360751%

Time Step =1107
 deltaT = 0.00041302329 s
 Time = 0.45721678 s
 Simulation completed = 91.443356%

Time Step =1108
 deltaT = 0.00041302329 s
 Time = 0.4576298 s
 Simulation completed = 91.52596%

Time Step =1109
 deltaT = 0.00041302329 s
 Time = 0.45804282 s
 Simulation completed = 91.608565%

Time Step =1110
 deltaT = 0.00041302329 s
 Time = 0.45845585 s
 Simulation completed = 91.69117%

Time Step =1111
 deltaT = 0.00041302329 s
 Time = 0.45886887 s
 Simulation completed = 91.773774%

Time Step =1112
 deltaT = 0.00041302329 s
 Time = 0.45928189 s
 Simulation completed = 91.856379%

Time Step =1113
 deltaT = 0.00041302329 s
 Time = 0.45969492 s
 Simulation completed = 91.938984%

Time Step =1114
 deltaT = 0.00041302329 s
 Time = 0.46010794 s
 Simulation completed = 92.021588%

Time Step =1115
 deltaT = 0.00041302329 s
 Time = 0.46052096 s
 Simulation completed = 92.104193%

Time Step =1116
 deltaT = 0.00041302329 s
 Time = 0.46093399 s
 Simulation completed = 92.186798%

Time Step =1117
 deltaT = 0.00041302329 s
 Time = 0.46134701 s
 Simulation completed = 92.269402%

Time Step =1118
 deltaT = 0.00041302329 s
 Time = 0.46176003 s
 Simulation completed = 92.352007%

Time Step =1119
 deltaT = 0.00041302329 s
 Time = 0.46217306 s
 Simulation completed = 92.434612%

Time Step =1120
 deltaT = 0.00041302329 s
 Time = 0.46258608 s
 Simulation completed = 92.517216%

Time Step =1121
 deltaT = 0.00041302329 s
 Time = 0.4629991 s
 Simulation completed = 92.599821%

Time Step =1122
 deltaT = 0.00041302329 s
 Time = 0.46341213 s
 Simulation completed = 92.682426%

Time Step =1123
 deltaT = 0.00041302329 s
 Time = 0.46382515 s
 Simulation completed = 92.76503%

Time Step =1124
 deltaT = 0.00041302329 s
 Time = 0.46423817 s
 Simulation completed = 92.847635%

Time Step =1125
 deltaT = 0.00041302329 s
 Time = 0.4646512 s
 Simulation completed = 92.930239%

Time Step =1126
 deltaT = 0.00041302329 s
 Time = 0.46506422 s
 Simulation completed = 93.012844%

Time Step =1127
 deltaT = 0.00041302329 s
 Time = 0.46547724 s
 Simulation completed = 93.095449%

Time Step =1128
 deltaT = 0.00041302329 s
 Time = 0.46589027 s
 Simulation completed = 93.178053%

Time Step =1129
 deltaT = 0.00041302329 s
 Time = 0.46630329 s
 Simulation completed = 93.260658%

Time Step =1130
 deltaT = 0.00041302329 s
 Time = 0.46671631 s
 Simulation completed = 93.343263%

Time Step =1131
 deltaT = 0.00041302329 s
 Time = 0.46712934 s
 Simulation completed = 93.425867%

Time Step =1132
 deltaT = 0.00041302329 s
 Time = 0.46754236 s
 Simulation completed = 93.508472%

Time Step =1133
 deltaT = 0.00041302329 s
 Time = 0.46795538 s
 Simulation completed = 93.591077%

Time Step =1134
 deltaT = 0.00041302329 s
 Time = 0.46836841 s
 Simulation completed = 93.673681%

Time Step =1135
 deltaT = 0.00041302329 s
 Time = 0.46878143 s
 Simulation completed = 93.756286%

Time Step =1136
 deltaT = 0.00041302329 s
 Time = 0.46919445 s
 Simulation completed = 93.838891%

Time Step =1137
 deltaT = 0.00041302329 s
 Time = 0.46960748 s
 Simulation completed = 93.921495%

Time Step =1138
 deltaT = 0.00041302329 s
 Time = 0.4700205 s
 Simulation completed = 94.0041%

Time Step =1139
 deltaT = 0.00041302329 s
 Time = 0.47043352 s
 Simulation completed = 94.086705%

Time Step =1140
 deltaT = 0.00041302329 s
 Time = 0.47084655 s
 Simulation completed = 94.169309%

Time Step =1141
 deltaT = 0.00041302329 s
 Time = 0.47125957 s
 Simulation completed = 94.251914%

Time Step =1142
 deltaT = 0.00041302329 s
 Time = 0.47167259 s
 Simulation completed = 94.334519%

Time Step =1143
 deltaT = 0.00041302329 s
 Time = 0.47208562 s
 Simulation completed = 94.417123%

Time Step =1144
 deltaT = 0.00041302329 s
 Time = 0.47249864 s
 Simulation completed = 94.499728%

Time Step =1145
 deltaT = 0.00041302329 s
 Time = 0.47291166 s
 Simulation completed = 94.582333%

Time Step =1146
 deltaT = 0.00041302329 s
 Time = 0.47332469 s
 Simulation completed = 94.664937%

Time Step =1147
 deltaT = 0.00041302329 s
 Time = 0.47373771 s
 Simulation completed = 94.747542%

Time Step =1148
 deltaT = 0.00041302329 s
 Time = 0.47415073 s
 Simulation completed = 94.830147%

Time Step =1149
 deltaT = 0.00041302329 s
 Time = 0.47456376 s
 Simulation completed = 94.912751%

Time Step =1150
 deltaT = 0.00041302329 s
 Time = 0.47497678 s
 Simulation completed = 94.995356%

Time Step =1151
 deltaT = 0.00041302329 s
 Time = 0.4753898 s
 Simulation completed = 95.077961%

Time Step =1152
 deltaT = 0.00041302329 s
 Time = 0.47580283 s
 Simulation completed = 95.160565%

Time Step =1153
 deltaT = 0.00041302329 s
 Time = 0.47621585 s
 Simulation completed = 95.24317%

Time Step =1154
 deltaT = 0.00041302329 s
 Time = 0.47662887 s
 Simulation completed = 95.325775%

Time Step =1155
 deltaT = 0.00041302329 s
 Time = 0.4770419 s
 Simulation completed = 95.408379%

Time Step =1156
 deltaT = 0.00041302329 s
 Time = 0.47745492 s
 Simulation completed = 95.490984%

Time Step =1157
 deltaT = 0.00041302329 s
 Time = 0.47786794 s
 Simulation completed = 95.573589%

Time Step =1158
 deltaT = 0.00041302329 s
 Time = 0.47828097 s
 Simulation completed = 95.656193%

Time Step =1159
 deltaT = 0.00041302329 s
 Time = 0.47869399 s
 Simulation completed = 95.738798%

Time Step =1160
 deltaT = 0.00041302329 s
 Time = 0.47910701 s
 Simulation completed = 95.821402%

Time Step =1161
 deltaT = 0.00041302329 s
 Time = 0.47952004 s
 Simulation completed = 95.904007%

Time Step =1162
 deltaT = 0.00041302329 s
 Time = 0.47993306 s
 Simulation completed = 95.986612%

Time Step =1163
 deltaT = 0.00041302329 s
 Time = 0.48034608 s
 Simulation completed = 96.069216%

Time Step =1164
 deltaT = 0.00041302329 s
 Time = 0.48075911 s
 Simulation completed = 96.151821%

Time Step =1165
 deltaT = 0.00041302329 s
 Time = 0.48117213 s
 Simulation completed = 96.234426%

Time Step =1166
 deltaT = 0.00041302329 s
 Time = 0.48158515 s
 Simulation completed = 96.31703%

Time Step =1167
 deltaT = 0.00041302329 s
 Time = 0.48199818 s
 Simulation completed = 96.399635%

Time Step =1168
 deltaT = 0.00041302329 s
 Time = 0.4824112 s
 Simulation completed = 96.48224%

Time Step =1169
 deltaT = 0.00041302329 s
 Time = 0.48282422 s
 Simulation completed = 96.564844%

Time Step =1170
 deltaT = 0.00041302329 s
 Time = 0.48323725 s
 Simulation completed = 96.647449%

Time Step =1171
 deltaT = 0.00041302329 s
 Time = 0.48365027 s
 Simulation completed = 96.730054%

Time Step =1172
 deltaT = 0.00041302329 s
 Time = 0.48406329 s
 Simulation completed = 96.812658%

Time Step =1173
 deltaT = 0.00041302329 s
 Time = 0.48447632 s
 Simulation completed = 96.895263%

Time Step =1174
 deltaT = 0.00041302329 s
 Time = 0.48488934 s
 Simulation completed = 96.977868%

Time Step =1175
 deltaT = 0.00041302329 s
 Time = 0.48530236 s
 Simulation completed = 97.060472%

Time Step =1176
 deltaT = 0.00041302329 s
 Time = 0.48571539 s
 Simulation completed = 97.143077%

Time Step =1177
 deltaT = 0.00041302329 s
 Time = 0.48612841 s
 Simulation completed = 97.225682%

Time Step =1178
 deltaT = 0.00041302329 s
 Time = 0.48654143 s
 Simulation completed = 97.308286%

Time Step =1179
 deltaT = 0.00041302329 s
 Time = 0.48695445 s
 Simulation completed = 97.390891%

Time Step =1180
 deltaT = 0.00041302329 s
 Time = 0.48736748 s
 Simulation completed = 97.473496%

Time Step =1181
 deltaT = 0.00041302329 s
 Time = 0.4877805 s
 Simulation completed = 97.5561%

Time Step =1182
 deltaT = 0.00041302329 s
 Time = 0.48819352 s
 Simulation completed = 97.638705%

Time Step =1183
 deltaT = 0.00041302329 s
 Time = 0.48860655 s
 Simulation completed = 97.72131%

Time Step =1184
 deltaT = 0.00041302329 s
 Time = 0.48901957 s
 Simulation completed = 97.803914%

Time Step =1185
 deltaT = 0.00041302329 s
 Time = 0.48943259 s
 Simulation completed = 97.886519%

Time Step =1186
 deltaT = 0.00041302329 s
 Time = 0.48984562 s
 Simulation completed = 97.969124%

Time Step =1187
 deltaT = 0.00041302329 s
 Time = 0.49025864 s
 Simulation completed = 98.051728%

Time Step =1188
 deltaT = 0.00041302329 s
 Time = 0.49067166 s
 Simulation completed = 98.134333%

Time Step =1189
 deltaT = 0.00041302329 s
 Time = 0.49108469 s
 Simulation completed = 98.216938%

Time Step =1190
 deltaT = 0.00041302329 s
 Time = 0.49149771 s
 Simulation completed = 98.299542%

Time Step =1191
 deltaT = 0.00041302329 s
 Time = 0.49191073 s
 Simulation completed = 98.382147%

Time Step =1192
 deltaT = 0.00041302329 s
 Time = 0.49232376 s
 Simulation completed = 98.464752%

Time Step =1193
 deltaT = 0.00041302329 s
 Time = 0.49273678 s
 Simulation completed = 98.547356%

Time Step =1194
 deltaT = 0.00041302329 s
 Time = 0.4931498 s
 Simulation completed = 98.629961%

Time Step =1195
 deltaT = 0.00041302329 s
 Time = 0.49356283 s
 Simulation completed = 98.712566%

Time Step =1196
 deltaT = 0.00041302329 s
 Time = 0.49397585 s
 Simulation completed = 98.79517%

Time Step =1197
 deltaT = 0.00041302329 s
 Time = 0.49438887 s
 Simulation completed = 98.877775%

Time Step =1198
 deltaT = 0.00041302329 s
 Time = 0.4948019 s
 Simulation completed = 98.960379%

Time Step =1199
 deltaT = 0.00041302329 s
 Time = 0.49521492 s
 Simulation completed = 99.042984%

Time Step =1200
 deltaT = 0.00041302329 s
 Time = 0.49562794 s
 Simulation completed = 99.125589%

Time Step =1201
 deltaT = 0.00041302329 s
 Time = 0.49604097 s
 Simulation completed = 99.208193%

Time Step =1202
 deltaT = 0.00041302329 s
 Time = 0.49645399 s
 Simulation completed = 99.290798%

Time Step =1203
 deltaT = 0.00041302329 s
 Time = 0.49686701 s
 Simulation completed = 99.373403%

Time Step =1204
 deltaT = 0.00041302329 s
 Time = 0.49728004 s
 Simulation completed = 99.456007%

Time Step =1205
 deltaT = 0.00041302329 s
 Time = 0.49769306 s
 Simulation completed = 99.538612%

Time Step =1206
 deltaT = 0.00041302329 s
 Time = 0.49810608 s
 Simulation completed = 99.621217%

Time Step =1207
 deltaT = 0.00041302329 s
 Time = 0.49851911 s
 Simulation completed = 99.703821%

Time Step =1208
 deltaT = 0.00041302329 s
 Time = 0.49893213 s
 Simulation completed = 99.786426%

Time Step =1209
 deltaT = 0.00041302329 s
 Time = 0.49934515 s
 Simulation completed = 99.869031%

Time Step =1210
 deltaT = 0.00041302329 s
 Time = 0.49975818 s
 Simulation completed = 99.951635%

Time Step =1211
 deltaT = 0.00041302329 s
 Time = 0.5001712 s
CoG: 18.945879 18.945879 -5.073906e-15
sample lm      : (1166.4023 1166.4023 7.7160586e-12)

sample pR      : (1000 1000 6.6152636e-12)

sample tC2     : (577.35027 -577.35027 -577.35027 577.35027 -577.35027 -577.35027 1.3137887e-11 -1.3137887e-11 -1.3137887e-11)

sample wC      : (-5.9576708e-19 5.9576708e-19 5.9576708e-19 4.5327545e-21 -4.5327545e-21 -4.5327545e-21 0 -0 -0)

sample lambdaH : 0.93961553
sample rhsLm2  : (0 0 0)
sample rhsLm3  : (1.3103776 1.3103776 1.6974214e-14)
 Simulation completed = 100.03424%

ExecutionTime = 70.52 s  ClockTime = 70 s
End

