/*---------------------------------------------------------------------------*\
  =========                 |
  \\      /  F ield         | OpenFOAM: The Open Source CFD Toolbox
   \\    /   O peration     | Website:  https://openfoam.org
    \\  /    A nd           | Version:  6
     \\/     M anipulation  |
\*---------------------------------------------------------------------------*/
Build  : 6
Exec   : vcALEFoam
Date   : Oct 22 2020
Time   : 22:52:37
Host   : "DESKTOP-JSPBMTA"
PID    : 26425
I/O    : uncollated
Case   : /home/thomas/OpenFOAM/vcALE/tutorials/vcALEFoam/translatingColumn
nProcs : 1
sigFpe : Enabling floating point exception trapping (FOAM_SIGFPE).
fileModificationChecking : Monitoring run-time modified files using timeStampMaster (fileModificationSkew 10)
allowSystemOperations : Allowing user-supplied system call operations

// * * * * * * * * * * * * * * * * * * * * * * * * * * * * * * * * * * * * * //
Create time

Create mesh for time = 0

Reading dictionaries ...
Reading data from dictionaries ...

Creating mesh parameters ...
Creating mesh coordinate fields ...
Creating linear momentum fields ...
Creating strain measure fields ...
Creating constitutive model ...
Creating fields for wave speeds ...
Creating ALE objects ...
Creating fields for fluxes ...
Creating fields for gradient ...
Creating fields for angular momentum ...
Creating fields for post-processing ...
Creating variables for time ...
Printing data ...

Printing material properties ...
Constitutive model = neoHookean
Density = 1100 [1 -3 0 0 0 0 0]
Young's modulus = 17000000 [1 -1 -2 0 0 0 0]
Poisson's ratio = 0.45 [0 0 0 0 0 0 0]
Lame's first parameter lambda = 52758621 [1 -1 -2 0 0 0 0]
Lame's second parameter mu = 5862069 [1 -1 -2 0 0 0 0]
Bulk modulus kappa = 56666667 [1 -1 -2 0 0 0 0]
Linear pressure wave speed = 242.1171 [0 1 -1 0 0 0 0]
Linear shear wave speed = 73.001052 [0 1 -1 0 0 0 0]
aleModel: neoHookean
fictitious Motion Type: sinusoid
beta: 0.01
T: 2

Printing global momentum ...
 Global linear momentum = (1000 1000 0)
 Global angular momentum = (-1.3470706e-14 1.3470706e-14 -3000)
Centroid of primal mesh = (-7.2280145e-19 3 -1.6985834e-18)
Centroid of dual mesh = (-2.3997008e-17 3 2.0816682e-17)

Time Step =1
 deltaT = 0.00041302329 s
 Time = 0.00041302329 s
 Simulation completed = 0.020651164%

Time Step =2
 deltaT = 0.00041302329 s
 Time = 0.00082604657 s
 Simulation completed = 0.041302329%

Time Step =3
 deltaT = 0.00041302329 s
 Time = 0.0012390699 s
 Simulation completed = 0.061953493%

Time Step =4
 deltaT = 0.00041302329 s
 Time = 0.0016520931 s
 Simulation completed = 0.082604657%

Time Step =5
 deltaT = 0.00041302329 s
 Time = 0.0020651164 s
 Simulation completed = 0.10325582%

Time Step =6
 deltaT = 0.00041302329 s
 Time = 0.0024781397 s
 Simulation completed = 0.12390699%

Time Step =7
 deltaT = 0.00041302329 s
 Time = 0.002891163 s
 Simulation completed = 0.14455815%

Time Step =8
 deltaT = 0.00041302329 s
 Time = 0.0033041863 s
 Simulation completed = 0.16520931%

Time Step =9
 deltaT = 0.00041302329 s
 Time = 0.0037172096 s
 Simulation completed = 0.18586048%

Time Step =10
 deltaT = 0.00041302329 s
 Time = 0.0041302329 s
 Simulation completed = 0.20651164%

Time Step =11
 deltaT = 0.00041302329 s
 Time = 0.0045432562 s
 Simulation completed = 0.22716281%

Time Step =12
 deltaT = 0.00041302329 s
 Time = 0.0049562794 s
 Simulation completed = 0.24781397%

Time Step =13
 deltaT = 0.00041302329 s
 Time = 0.0053693027 s
 Simulation completed = 0.26846514%

Time Step =14
 deltaT = 0.00041302329 s
 Time = 0.005782326 s
 Simulation completed = 0.2891163%

Time Step =15
 deltaT = 0.00041302329 s
 Time = 0.0061953493 s
 Simulation completed = 0.30976746%

Time Step =16
 deltaT = 0.00041302329 s
 Time = 0.0066083726 s
 Simulation completed = 0.33041863%

Time Step =17
 deltaT = 0.00041302329 s
 Time = 0.0070213959 s
 Simulation completed = 0.35106979%

Time Step =18
 deltaT = 0.00041302329 s
 Time = 0.0074344192 s
 Simulation completed = 0.37172096%

Time Step =19
 deltaT = 0.00041302329 s
 Time = 0.0078474424 s
 Simulation completed = 0.39237212%

Time Step =20
 deltaT = 0.00041302329 s
 Time = 0.0082604657 s
 Simulation completed = 0.41302329%

Time Step =21
 deltaT = 0.00041302329 s
 Time = 0.008673489 s
 Simulation completed = 0.43367445%

Time Step =22
 deltaT = 0.00041302329 s
 Time = 0.0090865123 s
 Simulation completed = 0.45432562%

Time Step =23
 deltaT = 0.00041302329 s
 Time = 0.0094995356 s
 Simulation completed = 0.47497678%

Time Step =24
 deltaT = 0.00041302329 s
 Time = 0.0099125589 s
 Simulation completed = 0.49562794%

Time Step =25
 deltaT = 0.00041302329 s
 Time = 0.010325582 s
 Simulation completed = 0.51627911%

Time Step =26
 deltaT = 0.00041302329 s
 Time = 0.010738605 s
 Simulation completed = 0.53693027%

Time Step =27
 deltaT = 0.00041302329 s
 Time = 0.011151629 s
 Simulation completed = 0.55758144%

Time Step =28
 deltaT = 0.00041302329 s
 Time = 0.011564652 s
 Simulation completed = 0.5782326%

Time Step =29
 deltaT = 0.00041302329 s
 Time = 0.011977675 s
 Simulation completed = 0.59888377%

Time Step =30
 deltaT = 0.00041302329 s
 Time = 0.012390699 s
 Simulation completed = 0.61953493%

Time Step =31
 deltaT = 0.00041302329 s
 Time = 0.012803722 s
 Simulation completed = 0.64018609%

Time Step =32
 deltaT = 0.00041302329 s
 Time = 0.013216745 s
 Simulation completed = 0.66083726%

Time Step =33
 deltaT = 0.00041302329 s
 Time = 0.013629768 s
 Simulation completed = 0.68148842%

Time Step =34
 deltaT = 0.00041302329 s
 Time = 0.014042792 s
 Simulation completed = 0.70213959%

Time Step =35
 deltaT = 0.00041302329 s
 Time = 0.014455815 s
 Simulation completed = 0.72279075%

Time Step =36
 deltaT = 0.00041302329 s
 Time = 0.014868838 s
 Simulation completed = 0.74344192%

Time Step =37
 deltaT = 0.00041302329 s
 Time = 0.015281862 s
 Simulation completed = 0.76409308%

Time Step =38
 deltaT = 0.00041302329 s
 Time = 0.015694885 s
 Simulation completed = 0.78474424%

Time Step =39
 deltaT = 0.00041302329 s
 Time = 0.016107908 s
 Simulation completed = 0.80539541%

Time Step =40
 deltaT = 0.00041302329 s
 Time = 0.016520931 s
 Simulation completed = 0.82604657%

Time Step =41
 deltaT = 0.00041302329 s
 Time = 0.016933955 s
 Simulation completed = 0.84669774%

Time Step =42
 deltaT = 0.00041302329 s
 Time = 0.017346978 s
 Simulation completed = 0.8673489%

Time Step =43
 deltaT = 0.00041302329 s
 Time = 0.017760001 s
 Simulation completed = 0.88800007%

Time Step =44
 deltaT = 0.00041302329 s
 Time = 0.018173025 s
 Simulation completed = 0.90865123%

Time Step =45
 deltaT = 0.00041302329 s
 Time = 0.018586048 s
 Simulation completed = 0.92930239%

Time Step =46
 deltaT = 0.00041302329 s
 Time = 0.018999071 s
 Simulation completed = 0.94995356%

Time Step =47
 deltaT = 0.00041302329 s
 Time = 0.019412094 s
 Simulation completed = 0.97060472%

Time Step =48
 deltaT = 0.00041302329 s
 Time = 0.019825118 s
 Simulation completed = 0.99125589%

Time Step =49
 deltaT = 0.00041302329 s
 Time = 0.020238141 s
 Simulation completed = 1.0119071%

Time Step =50
 deltaT = 0.00041302329 s
 Time = 0.020651164 s
 Simulation completed = 1.0325582%

Time Step =51
 deltaT = 0.00041302329 s
 Time = 0.021064188 s
 Simulation completed = 1.0532094%

Time Step =52
 deltaT = 0.00041302329 s
 Time = 0.021477211 s
 Simulation completed = 1.0738605%

Time Step =53
 deltaT = 0.00041302329 s
 Time = 0.021890234 s
 Simulation completed = 1.0945117%

Time Step =54
 deltaT = 0.00041302329 s
 Time = 0.022303257 s
 Simulation completed = 1.1151629%

Time Step =55
 deltaT = 0.00041302329 s
 Time = 0.022716281 s
 Simulation completed = 1.135814%

Time Step =56
 deltaT = 0.00041302329 s
 Time = 0.023129304 s
 Simulation completed = 1.1564652%

Time Step =57
 deltaT = 0.00041302329 s
 Time = 0.023542327 s
 Simulation completed = 1.1771164%

Time Step =58
 deltaT = 0.00041302329 s
 Time = 0.023955351 s
 Simulation completed = 1.1977675%

Time Step =59
 deltaT = 0.00041302329 s
 Time = 0.024368374 s
 Simulation completed = 1.2184187%

Time Step =60
 deltaT = 0.00041302329 s
 Time = 0.024781397 s
 Simulation completed = 1.2390699%

Time Step =61
 deltaT = 0.00041302329 s
 Time = 0.02519442 s
 Simulation completed = 1.259721%

Time Step =62
 deltaT = 0.00041302329 s
 Time = 0.025607444 s
 Simulation completed = 1.2803722%

Time Step =63
 deltaT = 0.00041302329 s
 Time = 0.026020467 s
 Simulation completed = 1.3010234%

Time Step =64
 deltaT = 0.00041302329 s
 Time = 0.02643349 s
 Simulation completed = 1.3216745%

Time Step =65
 deltaT = 0.00041302329 s
 Time = 0.026846514 s
 Simulation completed = 1.3423257%

Time Step =66
 deltaT = 0.00041302329 s
 Time = 0.027259537 s
 Simulation completed = 1.3629768%

Time Step =67
 deltaT = 0.00041302329 s
 Time = 0.02767256 s
 Simulation completed = 1.383628%

Time Step =68
 deltaT = 0.00041302329 s
 Time = 0.028085583 s
 Simulation completed = 1.4042792%

Time Step =69
 deltaT = 0.00041302329 s
 Time = 0.028498607 s
 Simulation completed = 1.4249303%

Time Step =70
 deltaT = 0.00041302329 s
 Time = 0.02891163 s
 Simulation completed = 1.4455815%

Time Step =71
 deltaT = 0.00041302329 s
 Time = 0.029324653 s
 Simulation completed = 1.4662327%

Time Step =72
 deltaT = 0.00041302329 s
 Time = 0.029737677 s
 Simulation completed = 1.4868838%

Time Step =73
 deltaT = 0.00041302329 s
 Time = 0.0301507 s
 Simulation completed = 1.507535%

Time Step =74
 deltaT = 0.00041302329 s
 Time = 0.030563723 s
 Simulation completed = 1.5281862%

Time Step =75
 deltaT = 0.00041302329 s
 Time = 0.030976746 s
 Simulation completed = 1.5488373%

Time Step =76
 deltaT = 0.00041302329 s
 Time = 0.03138977 s
 Simulation completed = 1.5694885%

Time Step =77
 deltaT = 0.00041302329 s
 Time = 0.031802793 s
 Simulation completed = 1.5901397%

Time Step =78
 deltaT = 0.00041302329 s
 Time = 0.032215816 s
 Simulation completed = 1.6107908%

Time Step =79
 deltaT = 0.00041302329 s
 Time = 0.03262884 s
 Simulation completed = 1.631442%

Time Step =80
 deltaT = 0.00041302329 s
 Time = 0.033041863 s
 Simulation completed = 1.6520931%

Time Step =81
 deltaT = 0.00041302329 s
 Time = 0.033454886 s
 Simulation completed = 1.6727443%

Time Step =82
 deltaT = 0.00041302329 s
 Time = 0.03386791 s
 Simulation completed = 1.6933955%

Time Step =83
 deltaT = 0.00041302329 s
 Time = 0.034280933 s
 Simulation completed = 1.7140466%

Time Step =84
 deltaT = 0.00041302329 s
 Time = 0.034693956 s
 Simulation completed = 1.7346978%

Time Step =85
 deltaT = 0.00041302329 s
 Time = 0.035106979 s
 Simulation completed = 1.755349%

Time Step =86
 deltaT = 0.00041302329 s
 Time = 0.035520003 s
 Simulation completed = 1.7760001%

Time Step =87
 deltaT = 0.00041302329 s
 Time = 0.035933026 s
 Simulation completed = 1.7966513%

Time Step =88
 deltaT = 0.00041302329 s
 Time = 0.036346049 s
 Simulation completed = 1.8173025%

Time Step =89
 deltaT = 0.00041302329 s
 Time = 0.036759073 s
 Simulation completed = 1.8379536%

Time Step =90
 deltaT = 0.00041302329 s
 Time = 0.037172096 s
 Simulation completed = 1.8586048%

Time Step =91
 deltaT = 0.00041302329 s
 Time = 0.037585119 s
 Simulation completed = 1.879256%

Time Step =92
 deltaT = 0.00041302329 s
 Time = 0.037998142 s
 Simulation completed = 1.8999071%

Time Step =93
 deltaT = 0.00041302329 s
 Time = 0.038411166 s
 Simulation completed = 1.9205583%

Time Step =94
 deltaT = 0.00041302329 s
 Time = 0.038824189 s
 Simulation completed = 1.9412094%

Time Step =95
 deltaT = 0.00041302329 s
 Time = 0.039237212 s
 Simulation completed = 1.9618606%

Time Step =96
 deltaT = 0.00041302329 s
 Time = 0.039650236 s
 Simulation completed = 1.9825118%

Time Step =97
 deltaT = 0.00041302329 s
 Time = 0.040063259 s
 Simulation completed = 2.0031629%

Time Step =98
 deltaT = 0.00041302329 s
 Time = 0.040476282 s
 Simulation completed = 2.0238141%

Time Step =99
 deltaT = 0.00041302329 s
 Time = 0.040889305 s
 Simulation completed = 2.0444653%

Time Step =100
 deltaT = 0.00041302329 s
 Time = 0.041302329 s
 Simulation completed = 2.0651164%

Time Step =101
 deltaT = 0.00041302329 s
 Time = 0.041715352 s
 Simulation completed = 2.0857676%

Time Step =102
 deltaT = 0.00041302329 s
 Time = 0.042128375 s
 Simulation completed = 2.1064188%

Time Step =103
 deltaT = 0.00041302329 s
 Time = 0.042541399 s
 Simulation completed = 2.1270699%

Time Step =104
 deltaT = 0.00041302329 s
 Time = 0.042954422 s
 Simulation completed = 2.1477211%

Time Step =105
 deltaT = 0.00041302329 s
 Time = 0.043367445 s
 Simulation completed = 2.1683723%

Time Step =106
 deltaT = 0.00041302329 s
 Time = 0.043780468 s
 Simulation completed = 2.1890234%

Time Step =107
 deltaT = 0.00041302329 s
 Time = 0.044193492 s
 Simulation completed = 2.2096746%

Time Step =108
 deltaT = 0.00041302329 s
 Time = 0.044606515 s
 Simulation completed = 2.2303257%

Time Step =109
 deltaT = 0.00041302329 s
 Time = 0.045019538 s
 Simulation completed = 2.2509769%

Time Step =110
 deltaT = 0.00041302329 s
 Time = 0.045432562 s
 Simulation completed = 2.2716281%

Time Step =111
 deltaT = 0.00041302329 s
 Time = 0.045845585 s
 Simulation completed = 2.2922792%

Time Step =112
 deltaT = 0.00041302329 s
 Time = 0.046258608 s
 Simulation completed = 2.3129304%

Time Step =113
 deltaT = 0.00041302329 s
 Time = 0.046671631 s
 Simulation completed = 2.3335816%

Time Step =114
 deltaT = 0.00041302329 s
 Time = 0.047084655 s
 Simulation completed = 2.3542327%

Time Step =115
 deltaT = 0.00041302329 s
 Time = 0.047497678 s
 Simulation completed = 2.3748839%

Time Step =116
 deltaT = 0.00041302329 s
 Time = 0.047910701 s
 Simulation completed = 2.3955351%

Time Step =117
 deltaT = 0.00041302329 s
 Time = 0.048323725 s
 Simulation completed = 2.4161862%

Time Step =118
 deltaT = 0.00041302329 s
 Time = 0.048736748 s
 Simulation completed = 2.4368374%

Time Step =119
 deltaT = 0.00041302329 s
 Time = 0.049149771 s
 Simulation completed = 2.4574886%

Time Step =120
 deltaT = 0.00041302329 s
 Time = 0.049562794 s
 Simulation completed = 2.4781397%

Time Step =121
 deltaT = 0.00041302329 s
 Time = 0.049975818 s
 Simulation completed = 2.4987909%

Time Step =122
 deltaT = 0.00041302329 s
 Time = 0.050388841 s
 Simulation completed = 2.519442%

Time Step =123
 deltaT = 0.00041302329 s
 Time = 0.050801864 s
 Simulation completed = 2.5400932%

Time Step =124
 deltaT = 0.00041302329 s
 Time = 0.051214888 s
 Simulation completed = 2.5607444%

Time Step =125
 deltaT = 0.00041302329 s
 Time = 0.051627911 s
 Simulation completed = 2.5813955%

Time Step =126
 deltaT = 0.00041302329 s
 Time = 0.052040934 s
 Simulation completed = 2.6020467%

Time Step =127
 deltaT = 0.00041302329 s
 Time = 0.052453957 s
 Simulation completed = 2.6226979%

Time Step =128
 deltaT = 0.00041302329 s
 Time = 0.052866981 s
 Simulation completed = 2.643349%

Time Step =129
 deltaT = 0.00041302329 s
 Time = 0.053280004 s
 Simulation completed = 2.6640002%

Time Step =130
 deltaT = 0.00041302329 s
 Time = 0.053693027 s
 Simulation completed = 2.6846514%

Time Step =131
 deltaT = 0.00041302329 s
 Time = 0.054106051 s
 Simulation completed = 2.7053025%

Time Step =132
 deltaT = 0.00041302329 s
 Time = 0.054519074 s
 Simulation completed = 2.7259537%

Time Step =133
 deltaT = 0.00041302329 s
 Time = 0.054932097 s
 Simulation completed = 2.7466049%

Time Step =134
 deltaT = 0.00041302329 s
 Time = 0.05534512 s
 Simulation completed = 2.767256%

Time Step =135
 deltaT = 0.00041302329 s
 Time = 0.055758144 s
 Simulation completed = 2.7879072%

Time Step =136
 deltaT = 0.00041302329 s
 Time = 0.056171167 s
 Simulation completed = 2.8085583%

Time Step =137
 deltaT = 0.00041302329 s
 Time = 0.05658419 s
 Simulation completed = 2.8292095%

Time Step =138
 deltaT = 0.00041302329 s
 Time = 0.056997214 s
 Simulation completed = 2.8498607%

Time Step =139
 deltaT = 0.00041302329 s
 Time = 0.057410237 s
 Simulation completed = 2.8705118%

Time Step =140
 deltaT = 0.00041302329 s
 Time = 0.05782326 s
 Simulation completed = 2.891163%

Time Step =141
 deltaT = 0.00041302329 s
 Time = 0.058236283 s
 Simulation completed = 2.9118142%

Time Step =142
 deltaT = 0.00041302329 s
 Time = 0.058649307 s
 Simulation completed = 2.9324653%

Time Step =143
 deltaT = 0.00041302329 s
 Time = 0.05906233 s
 Simulation completed = 2.9531165%

Time Step =144
 deltaT = 0.00041302329 s
 Time = 0.059475353 s
 Simulation completed = 2.9737677%

Time Step =145
 deltaT = 0.00041302329 s
 Time = 0.059888377 s
 Simulation completed = 2.9944188%

Time Step =146
 deltaT = 0.00041302329 s
 Time = 0.0603014 s
 Simulation completed = 3.01507%

Time Step =147
 deltaT = 0.00041302329 s
 Time = 0.060714423 s
 Simulation completed = 3.0357212%

Time Step =148
 deltaT = 0.00041302329 s
 Time = 0.061127446 s
 Simulation completed = 3.0563723%

Time Step =149
 deltaT = 0.00041302329 s
 Time = 0.06154047 s
 Simulation completed = 3.0770235%

Time Step =150
 deltaT = 0.00041302329 s
 Time = 0.061953493 s
 Simulation completed = 3.0976746%

Time Step =151
 deltaT = 0.00041302329 s
 Time = 0.062366516 s
 Simulation completed = 3.1183258%

Time Step =152
 deltaT = 0.00041302329 s
 Time = 0.06277954 s
 Simulation completed = 3.138977%

Time Step =153
 deltaT = 0.00041302329 s
 Time = 0.063192563 s
 Simulation completed = 3.1596281%

Time Step =154
 deltaT = 0.00041302329 s
 Time = 0.063605586 s
 Simulation completed = 3.1802793%

Time Step =155
 deltaT = 0.00041302329 s
 Time = 0.064018609 s
 Simulation completed = 3.2009305%

Time Step =156
 deltaT = 0.00041302329 s
 Time = 0.064431633 s
 Simulation completed = 3.2215816%

Time Step =157
 deltaT = 0.00041302329 s
 Time = 0.064844656 s
 Simulation completed = 3.2422328%

Time Step =158
 deltaT = 0.00041302329 s
 Time = 0.065257679 s
 Simulation completed = 3.262884%

Time Step =159
 deltaT = 0.00041302329 s
 Time = 0.065670703 s
 Simulation completed = 3.2835351%

Time Step =160
 deltaT = 0.00041302329 s
 Time = 0.066083726 s
 Simulation completed = 3.3041863%

Time Step =161
 deltaT = 0.00041302329 s
 Time = 0.066496749 s
 Simulation completed = 3.3248375%

Time Step =162
 deltaT = 0.00041302329 s
 Time = 0.066909772 s
 Simulation completed = 3.3454886%

Time Step =163
 deltaT = 0.00041302329 s
 Time = 0.067322796 s
 Simulation completed = 3.3661398%

Time Step =164
 deltaT = 0.00041302329 s
 Time = 0.067735819 s
 Simulation completed = 3.386791%

Time Step =165
 deltaT = 0.00041302329 s
 Time = 0.068148842 s
 Simulation completed = 3.4074421%

Time Step =166
 deltaT = 0.00041302329 s
 Time = 0.068561866 s
 Simulation completed = 3.4280933%

Time Step =167
 deltaT = 0.00041302329 s
 Time = 0.068974889 s
 Simulation completed = 3.4487444%

Time Step =168
 deltaT = 0.00041302329 s
 Time = 0.069387912 s
 Simulation completed = 3.4693956%

Time Step =169
 deltaT = 0.00041302329 s
 Time = 0.069800935 s
 Simulation completed = 3.4900468%

Time Step =170
 deltaT = 0.00041302329 s
 Time = 0.070213959 s
 Simulation completed = 3.5106979%

Time Step =171
 deltaT = 0.00041302329 s
 Time = 0.070626982 s
 Simulation completed = 3.5313491%

Time Step =172
 deltaT = 0.00041302329 s
 Time = 0.071040005 s
 Simulation completed = 3.5520003%

Time Step =173
 deltaT = 0.00041302329 s
 Time = 0.071453029 s
 Simulation completed = 3.5726514%

Time Step =174
 deltaT = 0.00041302329 s
 Time = 0.071866052 s
 Simulation completed = 3.5933026%

Time Step =175
 deltaT = 0.00041302329 s
 Time = 0.072279075 s
 Simulation completed = 3.6139538%

Time Step =176
 deltaT = 0.00041302329 s
 Time = 0.072692098 s
 Simulation completed = 3.6346049%

Time Step =177
 deltaT = 0.00041302329 s
 Time = 0.073105122 s
 Simulation completed = 3.6552561%

Time Step =178
 deltaT = 0.00041302329 s
 Time = 0.073518145 s
 Simulation completed = 3.6759073%

Time Step =179
 deltaT = 0.00041302329 s
 Time = 0.073931168 s
 Simulation completed = 3.6965584%

Time Step =180
 deltaT = 0.00041302329 s
 Time = 0.074344192 s
 Simulation completed = 3.7172096%

Time Step =181
 deltaT = 0.00041302329 s
 Time = 0.074757215 s
 Simulation completed = 3.7378607%

Time Step =182
 deltaT = 0.00041302329 s
 Time = 0.075170238 s
 Simulation completed = 3.7585119%

Time Step =183
 deltaT = 0.00041302329 s
 Time = 0.075583261 s
 Simulation completed = 3.7791631%

Time Step =184
 deltaT = 0.00041302329 s
 Time = 0.075996285 s
 Simulation completed = 3.7998142%

Time Step =185
 deltaT = 0.00041302329 s
 Time = 0.076409308 s
 Simulation completed = 3.8204654%

Time Step =186
 deltaT = 0.00041302329 s
 Time = 0.076822331 s
 Simulation completed = 3.8411166%

Time Step =187
 deltaT = 0.00041302329 s
 Time = 0.077235355 s
 Simulation completed = 3.8617677%

Time Step =188
 deltaT = 0.00041302329 s
 Time = 0.077648378 s
 Simulation completed = 3.8824189%

Time Step =189
 deltaT = 0.00041302329 s
 Time = 0.078061401 s
 Simulation completed = 3.9030701%

Time Step =190
 deltaT = 0.00041302329 s
 Time = 0.078474424 s
 Simulation completed = 3.9237212%

Time Step =191
 deltaT = 0.00041302329 s
 Time = 0.078887448 s
 Simulation completed = 3.9443724%

Time Step =192
 deltaT = 0.00041302329 s
 Time = 0.079300471 s
 Simulation completed = 3.9650236%

Time Step =193
 deltaT = 0.00041302329 s
 Time = 0.079713494 s
 Simulation completed = 3.9856747%

Time Step =194
 deltaT = 0.00041302329 s
 Time = 0.080126518 s
 Simulation completed = 4.0063259%

Time Step =195
 deltaT = 0.00041302329 s
 Time = 0.080539541 s
 Simulation completed = 4.026977%

Time Step =196
 deltaT = 0.00041302329 s
 Time = 0.080952564 s
 Simulation completed = 4.0476282%

Time Step =197
 deltaT = 0.00041302329 s
 Time = 0.081365587 s
 Simulation completed = 4.0682794%

Time Step =198
 deltaT = 0.00041302329 s
 Time = 0.081778611 s
 Simulation completed = 4.0889305%

Time Step =199
 deltaT = 0.00041302329 s
 Time = 0.082191634 s
 Simulation completed = 4.1095817%

Time Step =200
 deltaT = 0.00041302329 s
 Time = 0.082604657 s
 Simulation completed = 4.1302329%

Time Step =201
 deltaT = 0.00041302329 s
 Time = 0.083017681 s
 Simulation completed = 4.150884%

Time Step =202
 deltaT = 0.00041302329 s
 Time = 0.083430704 s
 Simulation completed = 4.1715352%

Time Step =203
 deltaT = 0.00041302329 s
 Time = 0.083843727 s
 Simulation completed = 4.1921864%

Time Step =204
 deltaT = 0.00041302329 s
 Time = 0.08425675 s
 Simulation completed = 4.2128375%

Time Step =205
 deltaT = 0.00041302329 s
 Time = 0.084669774 s
 Simulation completed = 4.2334887%

Time Step =206
 deltaT = 0.00041302329 s
 Time = 0.085082797 s
 Simulation completed = 4.2541399%

Time Step =207
 deltaT = 0.00041302329 s
 Time = 0.08549582 s
 Simulation completed = 4.274791%

Time Step =208
 deltaT = 0.00041302329 s
 Time = 0.085908844 s
 Simulation completed = 4.2954422%

Time Step =209
 deltaT = 0.00041302329 s
 Time = 0.086321867 s
 Simulation completed = 4.3160933%

Time Step =210
 deltaT = 0.00041302329 s
 Time = 0.08673489 s
 Simulation completed = 4.3367445%

Time Step =211
 deltaT = 0.00041302329 s
 Time = 0.087147913 s
 Simulation completed = 4.3573957%

Time Step =212
 deltaT = 0.00041302329 s
 Time = 0.087560937 s
 Simulation completed = 4.3780468%

Time Step =213
 deltaT = 0.00041302329 s
 Time = 0.08797396 s
 Simulation completed = 4.398698%

Time Step =214
 deltaT = 0.00041302329 s
 Time = 0.088386983 s
 Simulation completed = 4.4193492%

Time Step =215
 deltaT = 0.00041302329 s
 Time = 0.088800007 s
 Simulation completed = 4.4400003%

Time Step =216
 deltaT = 0.00041302329 s
 Time = 0.08921303 s
 Simulation completed = 4.4606515%

Time Step =217
 deltaT = 0.00041302329 s
 Time = 0.089626053 s
 Simulation completed = 4.4813027%

Time Step =218
 deltaT = 0.00041302329 s
 Time = 0.090039076 s
 Simulation completed = 4.5019538%

Time Step =219
 deltaT = 0.00041302329 s
 Time = 0.0904521 s
 Simulation completed = 4.522605%

Time Step =220
 deltaT = 0.00041302329 s
 Time = 0.090865123 s
 Simulation completed = 4.5432562%

Time Step =221
 deltaT = 0.00041302329 s
 Time = 0.091278146 s
 Simulation completed = 4.5639073%

Time Step =222
 deltaT = 0.00041302329 s
 Time = 0.09169117 s
 Simulation completed = 4.5845585%

Time Step =223
 deltaT = 0.00041302329 s
 Time = 0.092104193 s
 Simulation completed = 4.6052096%

Time Step =224
 deltaT = 0.00041302329 s
 Time = 0.092517216 s
 Simulation completed = 4.6258608%

Time Step =225
 deltaT = 0.00041302329 s
 Time = 0.092930239 s
 Simulation completed = 4.646512%

Time Step =226
 deltaT = 0.00041302329 s
 Time = 0.093343263 s
 Simulation completed = 4.6671631%

Time Step =227
 deltaT = 0.00041302329 s
 Time = 0.093756286 s
 Simulation completed = 4.6878143%

Time Step =228
 deltaT = 0.00041302329 s
 Time = 0.094169309 s
 Simulation completed = 4.7084655%

Time Step =229
 deltaT = 0.00041302329 s
 Time = 0.094582333 s
 Simulation completed = 4.7291166%

Time Step =230
 deltaT = 0.00041302329 s
 Time = 0.094995356 s
 Simulation completed = 4.7497678%

Time Step =231
 deltaT = 0.00041302329 s
 Time = 0.095408379 s
 Simulation completed = 4.770419%

Time Step =232
 deltaT = 0.00041302329 s
 Time = 0.095821402 s
 Simulation completed = 4.7910701%

Time Step =233
 deltaT = 0.00041302329 s
 Time = 0.096234426 s
 Simulation completed = 4.8117213%

Time Step =234
 deltaT = 0.00041302329 s
 Time = 0.096647449 s
 Simulation completed = 4.8323725%

Time Step =235
 deltaT = 0.00041302329 s
 Time = 0.097060472 s
 Simulation completed = 4.8530236%

Time Step =236
 deltaT = 0.00041302329 s
 Time = 0.097473496 s
 Simulation completed = 4.8736748%

Time Step =237
 deltaT = 0.00041302329 s
 Time = 0.097886519 s
 Simulation completed = 4.8943259%

Time Step =238
 deltaT = 0.00041302329 s
 Time = 0.098299542 s
 Simulation completed = 4.9149771%

Time Step =239
 deltaT = 0.00041302329 s
 Time = 0.098712566 s
 Simulation completed = 4.9356283%

Time Step =240
 deltaT = 0.00041302329 s
 Time = 0.099125589 s
 Simulation completed = 4.9562794%

Time Step =241
 deltaT = 0.00041302329 s
 Time = 0.099538612 s
 Simulation completed = 4.9769306%

Time Step =242
 deltaT = 0.00041302329 s
 Time = 0.099951635 s
CoG: (3.7860481 3.7860471 -1.8881972e-06)
 Simulation completed = 4.9975818%

Time Step =243
 deltaT = 0.00041302329 s
 Time = 0.10036466 s
 Simulation completed = 5.0182329%

Time Step =244
 deltaT = 0.00041302329 s
 Time = 0.10077768 s
 Simulation completed = 5.0388841%

Time Step =245
 deltaT = 0.00041302329 s
 Time = 0.10119071 s
 Simulation completed = 5.0595353%

Time Step =246
 deltaT = 0.00041302329 s
 Time = 0.10160373 s
 Simulation completed = 5.0801864%

Time Step =247
 deltaT = 0.00041302329 s
 Time = 0.10201675 s
 Simulation completed = 5.1008376%

Time Step =248
 deltaT = 0.00041302329 s
 Time = 0.10242978 s
 Simulation completed = 5.1214888%

Time Step =249
 deltaT = 0.00041302329 s
 Time = 0.1028428 s
 Simulation completed = 5.1421399%

Time Step =250
 deltaT = 0.00041302329 s
 Time = 0.10325582 s
 Simulation completed = 5.1627911%

Time Step =251
 deltaT = 0.00041302329 s
 Time = 0.10366884 s
 Simulation completed = 5.1834422%

Time Step =252
 deltaT = 0.00041302329 s
 Time = 0.10408187 s
 Simulation completed = 5.2040934%

Time Step =253
 deltaT = 0.00041302329 s
 Time = 0.10449489 s
 Simulation completed = 5.2247446%

Time Step =254
 deltaT = 0.00041302329 s
 Time = 0.10490791 s
 Simulation completed = 5.2453957%

Time Step =255
 deltaT = 0.00041302329 s
 Time = 0.10532094 s
 Simulation completed = 5.2660469%

Time Step =256
 deltaT = 0.00041302329 s
 Time = 0.10573396 s
 Simulation completed = 5.2866981%

Time Step =257
 deltaT = 0.00041302329 s
 Time = 0.10614698 s
 Simulation completed = 5.3073492%

Time Step =258
 deltaT = 0.00041302329 s
 Time = 0.10656001 s
 Simulation completed = 5.3280004%

Time Step =259
 deltaT = 0.00041302329 s
 Time = 0.10697303 s
 Simulation completed = 5.3486516%

Time Step =260
 deltaT = 0.00041302329 s
 Time = 0.10738605 s
 Simulation completed = 5.3693027%

Time Step =261
 deltaT = 0.00041302329 s
 Time = 0.10779908 s
 Simulation completed = 5.3899539%

Time Step =262
 deltaT = 0.00041302329 s
 Time = 0.1082121 s
 Simulation completed = 5.4106051%

Time Step =263
 deltaT = 0.00041302329 s
 Time = 0.10862512 s
 Simulation completed = 5.4312562%

Time Step =264
 deltaT = 0.00041302329 s
 Time = 0.10903815 s
 Simulation completed = 5.4519074%

Time Step =265
 deltaT = 0.00041302329 s
 Time = 0.10945117 s
 Simulation completed = 5.4725585%

Time Step =266
 deltaT = 0.00041302329 s
 Time = 0.10986419 s
 Simulation completed = 5.4932097%

Time Step =267
 deltaT = 0.00041302329 s
 Time = 0.11027722 s
 Simulation completed = 5.5138609%

Time Step =268
 deltaT = 0.00041302329 s
 Time = 0.11069024 s
 Simulation completed = 5.534512%

Time Step =269
 deltaT = 0.00041302329 s
 Time = 0.11110326 s
 Simulation completed = 5.5551632%

Time Step =270
 deltaT = 0.00041302329 s
 Time = 0.11151629 s
 Simulation completed = 5.5758144%

Time Step =271
 deltaT = 0.00041302329 s
 Time = 0.11192931 s
 Simulation completed = 5.5964655%

Time Step =272
 deltaT = 0.00041302329 s
 Time = 0.11234233 s
 Simulation completed = 5.6171167%

Time Step =273
 deltaT = 0.00041302329 s
 Time = 0.11275536 s
 Simulation completed = 5.6377679%

Time Step =274
 deltaT = 0.00041302329 s
 Time = 0.11316838 s
 Simulation completed = 5.658419%

Time Step =275
 deltaT = 0.00041302329 s
 Time = 0.1135814 s
 Simulation completed = 5.6790702%

Time Step =276
 deltaT = 0.00041302329 s
 Time = 0.11399443 s
 Simulation completed = 5.6997214%

Time Step =277
 deltaT = 0.00041302329 s
 Time = 0.11440745 s
 Simulation completed = 5.7203725%

Time Step =278
 deltaT = 0.00041302329 s
 Time = 0.11482047 s
 Simulation completed = 5.7410237%

Time Step =279
 deltaT = 0.00041302329 s
 Time = 0.1152335 s
 Simulation completed = 5.7616748%

Time Step =280
 deltaT = 0.00041302329 s
 Time = 0.11564652 s
 Simulation completed = 5.782326%

Time Step =281
 deltaT = 0.00041302329 s
 Time = 0.11605954 s
 Simulation completed = 5.8029772%

Time Step =282
 deltaT = 0.00041302329 s
 Time = 0.11647257 s
 Simulation completed = 5.8236283%

Time Step =283
 deltaT = 0.00041302329 s
 Time = 0.11688559 s
 Simulation completed = 5.8442795%

Time Step =284
 deltaT = 0.00041302329 s
 Time = 0.11729861 s
 Simulation completed = 5.8649307%

Time Step =285
 deltaT = 0.00041302329 s
 Time = 0.11771164 s
 Simulation completed = 5.8855818%

Time Step =286
 deltaT = 0.00041302329 s
 Time = 0.11812466 s
 Simulation completed = 5.906233%

Time Step =287
 deltaT = 0.00041302329 s
 Time = 0.11853768 s
 Simulation completed = 5.9268842%

Time Step =288
 deltaT = 0.00041302329 s
 Time = 0.11895071 s
 Simulation completed = 5.9475353%

Time Step =289
 deltaT = 0.00041302329 s
 Time = 0.11936373 s
 Simulation completed = 5.9681865%

Time Step =290
 deltaT = 0.00041302329 s
 Time = 0.11977675 s
 Simulation completed = 5.9888377%

Time Step =291
 deltaT = 0.00041302329 s
 Time = 0.12018978 s
 Simulation completed = 6.0094888%

Time Step =292
 deltaT = 0.00041302329 s
 Time = 0.1206028 s
 Simulation completed = 6.03014%

Time Step =293
 deltaT = 0.00041302329 s
 Time = 0.12101582 s
 Simulation completed = 6.0507911%

Time Step =294
 deltaT = 0.00041302329 s
 Time = 0.12142885 s
 Simulation completed = 6.0714423%

Time Step =295
 deltaT = 0.00041302329 s
 Time = 0.12184187 s
 Simulation completed = 6.0920935%

Time Step =296
 deltaT = 0.00041302329 s
 Time = 0.12225489 s
 Simulation completed = 6.1127446%

Time Step =297
 deltaT = 0.00041302329 s
 Time = 0.12266792 s
 Simulation completed = 6.1333958%

Time Step =298
 deltaT = 0.00041302329 s
 Time = 0.12308094 s
 Simulation completed = 6.154047%

Time Step =299
 deltaT = 0.00041302329 s
 Time = 0.12349396 s
 Simulation completed = 6.1746981%

Time Step =300
 deltaT = 0.00041302329 s
 Time = 0.12390699 s
 Simulation completed = 6.1953493%

Time Step =301
 deltaT = 0.00041302329 s
 Time = 0.12432001 s
 Simulation completed = 6.2160005%

Time Step =302
 deltaT = 0.00041302329 s
 Time = 0.12473303 s
 Simulation completed = 6.2366516%

Time Step =303
 deltaT = 0.00041302329 s
 Time = 0.12514606 s
 Simulation completed = 6.2573028%

Time Step =304
 deltaT = 0.00041302329 s
 Time = 0.12555908 s
 Simulation completed = 6.277954%

Time Step =305
 deltaT = 0.00041302329 s
 Time = 0.1259721 s
 Simulation completed = 6.2986051%

Time Step =306
 deltaT = 0.00041302329 s
 Time = 0.12638513 s
 Simulation completed = 6.3192563%

Time Step =307
 deltaT = 0.00041302329 s
 Time = 0.12679815 s
 Simulation completed = 6.3399074%

Time Step =308
 deltaT = 0.00041302329 s
 Time = 0.12721117 s
 Simulation completed = 6.3605586%

Time Step =309
 deltaT = 0.00041302329 s
 Time = 0.1276242 s
 Simulation completed = 6.3812098%

Time Step =310
 deltaT = 0.00041302329 s
 Time = 0.12803722 s
 Simulation completed = 6.4018609%

Time Step =311
 deltaT = 0.00041302329 s
 Time = 0.12845024 s
 Simulation completed = 6.4225121%

Time Step =312
 deltaT = 0.00041302329 s
 Time = 0.12886327 s
 Simulation completed = 6.4431633%

Time Step =313
 deltaT = 0.00041302329 s
 Time = 0.12927629 s
 Simulation completed = 6.4638144%

Time Step =314
 deltaT = 0.00041302329 s
 Time = 0.12968931 s
 Simulation completed = 6.4844656%

Time Step =315
 deltaT = 0.00041302329 s
 Time = 0.13010234 s
 Simulation completed = 6.5051168%

Time Step =316
 deltaT = 0.00041302329 s
 Time = 0.13051536 s
 Simulation completed = 6.5257679%

Time Step =317
 deltaT = 0.00041302329 s
 Time = 0.13092838 s
 Simulation completed = 6.5464191%

Time Step =318
 deltaT = 0.00041302329 s
 Time = 0.13134141 s
 Simulation completed = 6.5670703%

Time Step =319
 deltaT = 0.00041302329 s
 Time = 0.13175443 s
 Simulation completed = 6.5877214%

Time Step =320
 deltaT = 0.00041302329 s
 Time = 0.13216745 s
 Simulation completed = 6.6083726%

Time Step =321
 deltaT = 0.00041302329 s
 Time = 0.13258048 s
 Simulation completed = 6.6290238%

Time Step =322
 deltaT = 0.00041302329 s
 Time = 0.1329935 s
 Simulation completed = 6.6496749%

Time Step =323
 deltaT = 0.00041302329 s
 Time = 0.13340652 s
 Simulation completed = 6.6703261%

Time Step =324
 deltaT = 0.00041302329 s
 Time = 0.13381954 s
 Simulation completed = 6.6909772%

Time Step =325
 deltaT = 0.00041302329 s
 Time = 0.13423257 s
 Simulation completed = 6.7116284%

Time Step =326
 deltaT = 0.00041302329 s
 Time = 0.13464559 s
 Simulation completed = 6.7322796%

Time Step =327
 deltaT = 0.00041302329 s
 Time = 0.13505861 s
 Simulation completed = 6.7529307%

Time Step =328
 deltaT = 0.00041302329 s
 Time = 0.13547164 s
 Simulation completed = 6.7735819%

Time Step =329
 deltaT = 0.00041302329 s
 Time = 0.13588466 s
 Simulation completed = 6.7942331%

Time Step =330
 deltaT = 0.00041302329 s
 Time = 0.13629768 s
 Simulation completed = 6.8148842%

Time Step =331
 deltaT = 0.00041302329 s
 Time = 0.13671071 s
 Simulation completed = 6.8355354%

Time Step =332
 deltaT = 0.00041302329 s
 Time = 0.13712373 s
 Simulation completed = 6.8561866%

Time Step =333
 deltaT = 0.00041302329 s
 Time = 0.13753675 s
 Simulation completed = 6.8768377%

Time Step =334
 deltaT = 0.00041302329 s
 Time = 0.13794978 s
 Simulation completed = 6.8974889%

Time Step =335
 deltaT = 0.00041302329 s
 Time = 0.1383628 s
 Simulation completed = 6.9181401%

Time Step =336
 deltaT = 0.00041302329 s
 Time = 0.13877582 s
 Simulation completed = 6.9387912%

Time Step =337
 deltaT = 0.00041302329 s
 Time = 0.13918885 s
 Simulation completed = 6.9594424%

Time Step =338
 deltaT = 0.00041302329 s
 Time = 0.13960187 s
 Simulation completed = 6.9800935%

Time Step =339
 deltaT = 0.00041302329 s
 Time = 0.14001489 s
 Simulation completed = 7.0007447%

Time Step =340
 deltaT = 0.00041302329 s
 Time = 0.14042792 s
 Simulation completed = 7.0213959%

Time Step =341
 deltaT = 0.00041302329 s
 Time = 0.14084094 s
 Simulation completed = 7.042047%

Time Step =342
 deltaT = 0.00041302329 s
 Time = 0.14125396 s
 Simulation completed = 7.0626982%

Time Step =343
 deltaT = 0.00041302329 s
 Time = 0.14166699 s
 Simulation completed = 7.0833494%

Time Step =344
 deltaT = 0.00041302329 s
 Time = 0.14208001 s
 Simulation completed = 7.1040005%

Time Step =345
 deltaT = 0.00041302329 s
 Time = 0.14249303 s
 Simulation completed = 7.1246517%

Time Step =346
 deltaT = 0.00041302329 s
 Time = 0.14290606 s
 Simulation completed = 7.1453029%

Time Step =347
 deltaT = 0.00041302329 s
 Time = 0.14331908 s
 Simulation completed = 7.165954%

Time Step =348
 deltaT = 0.00041302329 s
 Time = 0.1437321 s
 Simulation completed = 7.1866052%

Time Step =349
 deltaT = 0.00041302329 s
 Time = 0.14414513 s
 Simulation completed = 7.2072564%

Time Step =350
 deltaT = 0.00041302329 s
 Time = 0.14455815 s
 Simulation completed = 7.2279075%

Time Step =351
 deltaT = 0.00041302329 s
 Time = 0.14497117 s
 Simulation completed = 7.2485587%

Time Step =352
 deltaT = 0.00041302329 s
 Time = 0.1453842 s
 Simulation completed = 7.2692098%

Time Step =353
 deltaT = 0.00041302329 s
 Time = 0.14579722 s
 Simulation completed = 7.289861%

Time Step =354
 deltaT = 0.00041302329 s
 Time = 0.14621024 s
 Simulation completed = 7.3105122%

Time Step =355
 deltaT = 0.00041302329 s
 Time = 0.14662327 s
 Simulation completed = 7.3311633%

Time Step =356
 deltaT = 0.00041302329 s
 Time = 0.14703629 s
 Simulation completed = 7.3518145%

Time Step =357
 deltaT = 0.00041302329 s
 Time = 0.14744931 s
 Simulation completed = 7.3724657%

Time Step =358
 deltaT = 0.00041302329 s
 Time = 0.14786234 s
 Simulation completed = 7.3931168%

Time Step =359
 deltaT = 0.00041302329 s
 Time = 0.14827536 s
 Simulation completed = 7.413768%

Time Step =360
 deltaT = 0.00041302329 s
 Time = 0.14868838 s
 Simulation completed = 7.4344192%

Time Step =361
 deltaT = 0.00041302329 s
 Time = 0.14910141 s
 Simulation completed = 7.4550703%

Time Step =362
 deltaT = 0.00041302329 s
 Time = 0.14951443 s
 Simulation completed = 7.4757215%

Time Step =363
 deltaT = 0.00041302329 s
 Time = 0.14992745 s
 Simulation completed = 7.4963727%

Time Step =364
 deltaT = 0.00041302329 s
 Time = 0.15034048 s
 Simulation completed = 7.5170238%

Time Step =365
 deltaT = 0.00041302329 s
 Time = 0.1507535 s
 Simulation completed = 7.537675%

Time Step =366
 deltaT = 0.00041302329 s
 Time = 0.15116652 s
 Simulation completed = 7.5583261%

Time Step =367
 deltaT = 0.00041302329 s
 Time = 0.15157955 s
 Simulation completed = 7.5789773%

Time Step =368
 deltaT = 0.00041302329 s
 Time = 0.15199257 s
 Simulation completed = 7.5996285%

Time Step =369
 deltaT = 0.00041302329 s
 Time = 0.15240559 s
 Simulation completed = 7.6202796%

Time Step =370
 deltaT = 0.00041302329 s
 Time = 0.15281862 s
 Simulation completed = 7.6409308%

Time Step =371
 deltaT = 0.00041302329 s
 Time = 0.15323164 s
 Simulation completed = 7.661582%

Time Step =372
 deltaT = 0.00041302329 s
 Time = 0.15364466 s
 Simulation completed = 7.6822331%

Time Step =373
 deltaT = 0.00041302329 s
 Time = 0.15405769 s
 Simulation completed = 7.7028843%

Time Step =374
 deltaT = 0.00041302329 s
 Time = 0.15447071 s
 Simulation completed = 7.7235355%

Time Step =375
 deltaT = 0.00041302329 s
 Time = 0.15488373 s
 Simulation completed = 7.7441866%

Time Step =376
 deltaT = 0.00041302329 s
 Time = 0.15529676 s
 Simulation completed = 7.7648378%

Time Step =377
 deltaT = 0.00041302329 s
 Time = 0.15570978 s
 Simulation completed = 7.785489%

Time Step =378
 deltaT = 0.00041302329 s
 Time = 0.1561228 s
 Simulation completed = 7.8061401%

Time Step =379
 deltaT = 0.00041302329 s
 Time = 0.15653583 s
 Simulation completed = 7.8267913%

Time Step =380
 deltaT = 0.00041302329 s
 Time = 0.15694885 s
 Simulation completed = 7.8474424%

Time Step =381
 deltaT = 0.00041302329 s
 Time = 0.15736187 s
 Simulation completed = 7.8680936%

Time Step =382
 deltaT = 0.00041302329 s
 Time = 0.1577749 s
 Simulation completed = 7.8887448%

Time Step =383
 deltaT = 0.00041302329 s
 Time = 0.15818792 s
 Simulation completed = 7.9093959%

Time Step =384
 deltaT = 0.00041302329 s
 Time = 0.15860094 s
 Simulation completed = 7.9300471%

Time Step =385
 deltaT = 0.00041302329 s
 Time = 0.15901397 s
 Simulation completed = 7.9506983%

Time Step =386
 deltaT = 0.00041302329 s
 Time = 0.15942699 s
 Simulation completed = 7.9713494%

Time Step =387
 deltaT = 0.00041302329 s
 Time = 0.15984001 s
 Simulation completed = 7.9920006%

Time Step =388
 deltaT = 0.00041302329 s
 Time = 0.16025304 s
 Simulation completed = 8.0126518%

Time Step =389
 deltaT = 0.00041302329 s
 Time = 0.16066606 s
 Simulation completed = 8.0333029%

Time Step =390
 deltaT = 0.00041302329 s
 Time = 0.16107908 s
 Simulation completed = 8.0539541%

Time Step =391
 deltaT = 0.00041302329 s
 Time = 0.16149211 s
 Simulation completed = 8.0746053%

Time Step =392
 deltaT = 0.00041302329 s
 Time = 0.16190513 s
 Simulation completed = 8.0952564%

Time Step =393
 deltaT = 0.00041302329 s
 Time = 0.16231815 s
 Simulation completed = 8.1159076%

Time Step =394
 deltaT = 0.00041302329 s
 Time = 0.16273117 s
 Simulation completed = 8.1365587%

Time Step =395
 deltaT = 0.00041302329 s
 Time = 0.1631442 s
 Simulation completed = 8.1572099%

Time Step =396
 deltaT = 0.00041302329 s
 Time = 0.16355722 s
 Simulation completed = 8.1778611%

Time Step =397
 deltaT = 0.00041302329 s
 Time = 0.16397024 s
 Simulation completed = 8.1985122%

Time Step =398
 deltaT = 0.00041302329 s
 Time = 0.16438327 s
 Simulation completed = 8.2191634%

Time Step =399
 deltaT = 0.00041302329 s
 Time = 0.16479629 s
 Simulation completed = 8.2398146%

Time Step =400
 deltaT = 0.00041302329 s
 Time = 0.16520931 s
 Simulation completed = 8.2604657%

Time Step =401
 deltaT = 0.00041302329 s
 Time = 0.16562234 s
 Simulation completed = 8.2811169%

Time Step =402
 deltaT = 0.00041302329 s
 Time = 0.16603536 s
 Simulation completed = 8.3017681%

Time Step =403
 deltaT = 0.00041302329 s
 Time = 0.16644838 s
 Simulation completed = 8.3224192%

Time Step =404
 deltaT = 0.00041302329 s
 Time = 0.16686141 s
 Simulation completed = 8.3430704%

Time Step =405
 deltaT = 0.00041302329 s
 Time = 0.16727443 s
 Simulation completed = 8.3637216%

Time Step =406
 deltaT = 0.00041302329 s
 Time = 0.16768745 s
 Simulation completed = 8.3843727%

Time Step =407
 deltaT = 0.00041302329 s
 Time = 0.16810048 s
 Simulation completed = 8.4050239%

Time Step =408
 deltaT = 0.00041302329 s
 Time = 0.1685135 s
 Simulation completed = 8.425675%

Time Step =409
 deltaT = 0.00041302329 s
 Time = 0.16892652 s
 Simulation completed = 8.4463262%

Time Step =410
 deltaT = 0.00041302329 s
 Time = 0.16933955 s
 Simulation completed = 8.4669774%

Time Step =411
 deltaT = 0.00041302329 s
 Time = 0.16975257 s
 Simulation completed = 8.4876285%

Time Step =412
 deltaT = 0.00041302329 s
 Time = 0.17016559 s
 Simulation completed = 8.5082797%

Time Step =413
 deltaT = 0.00041302329 s
 Time = 0.17057862 s
 Simulation completed = 8.5289309%

Time Step =414
 deltaT = 0.00041302329 s
 Time = 0.17099164 s
 Simulation completed = 8.549582%

Time Step =415
 deltaT = 0.00041302329 s
 Time = 0.17140466 s
 Simulation completed = 8.5702332%

Time Step =416
 deltaT = 0.00041302329 s
 Time = 0.17181769 s
 Simulation completed = 8.5908844%

Time Step =417
 deltaT = 0.00041302329 s
 Time = 0.17223071 s
 Simulation completed = 8.6115355%

Time Step =418
 deltaT = 0.00041302329 s
 Time = 0.17264373 s
 Simulation completed = 8.6321867%

Time Step =419
 deltaT = 0.00041302329 s
 Time = 0.17305676 s
 Simulation completed = 8.6528379%

Time Step =420
 deltaT = 0.00041302329 s
 Time = 0.17346978 s
 Simulation completed = 8.673489%

Time Step =421
 deltaT = 0.00041302329 s
 Time = 0.1738828 s
 Simulation completed = 8.6941402%

Time Step =422
 deltaT = 0.00041302329 s
 Time = 0.17429583 s
 Simulation completed = 8.7147913%

Time Step =423
 deltaT = 0.00041302329 s
 Time = 0.17470885 s
 Simulation completed = 8.7354425%

Time Step =424
 deltaT = 0.00041302329 s
 Time = 0.17512187 s
 Simulation completed = 8.7560937%

Time Step =425
 deltaT = 0.00041302329 s
 Time = 0.1755349 s
 Simulation completed = 8.7767448%

Time Step =426
 deltaT = 0.00041302329 s
 Time = 0.17594792 s
 Simulation completed = 8.797396%

Time Step =427
 deltaT = 0.00041302329 s
 Time = 0.17636094 s
 Simulation completed = 8.8180472%

Time Step =428
 deltaT = 0.00041302329 s
 Time = 0.17677397 s
 Simulation completed = 8.8386983%

Time Step =429
 deltaT = 0.00041302329 s
 Time = 0.17718699 s
 Simulation completed = 8.8593495%

Time Step =430
 deltaT = 0.00041302329 s
 Time = 0.17760001 s
 Simulation completed = 8.8800007%

Time Step =431
 deltaT = 0.00041302329 s
 Time = 0.17801304 s
 Simulation completed = 8.9006518%

Time Step =432
 deltaT = 0.00041302329 s
 Time = 0.17842606 s
 Simulation completed = 8.921303%

Time Step =433
 deltaT = 0.00041302329 s
 Time = 0.17883908 s
 Simulation completed = 8.9419542%

Time Step =434
 deltaT = 0.00041302329 s
 Time = 0.17925211 s
 Simulation completed = 8.9626053%

Time Step =435
 deltaT = 0.00041302329 s
 Time = 0.17966513 s
 Simulation completed = 8.9832565%

Time Step =436
 deltaT = 0.00041302329 s
 Time = 0.18007815 s
 Simulation completed = 9.0039076%

Time Step =437
 deltaT = 0.00041302329 s
 Time = 0.18049118 s
 Simulation completed = 9.0245588%

Time Step =438
 deltaT = 0.00041302329 s
 Time = 0.1809042 s
 Simulation completed = 9.04521%

Time Step =439
 deltaT = 0.00041302329 s
 Time = 0.18131722 s
 Simulation completed = 9.0658611%

Time Step =440
 deltaT = 0.00041302329 s
 Time = 0.18173025 s
 Simulation completed = 9.0865123%

Time Step =441
 deltaT = 0.00041302329 s
 Time = 0.18214327 s
 Simulation completed = 9.1071635%

Time Step =442
 deltaT = 0.00041302329 s
 Time = 0.18255629 s
 Simulation completed = 9.1278146%

Time Step =443
 deltaT = 0.00041302329 s
 Time = 0.18296932 s
 Simulation completed = 9.1484658%

Time Step =444
 deltaT = 0.00041302329 s
 Time = 0.18338234 s
 Simulation completed = 9.169117%

Time Step =445
 deltaT = 0.00041302329 s
 Time = 0.18379536 s
 Simulation completed = 9.1897681%

Time Step =446
 deltaT = 0.00041302329 s
 Time = 0.18420839 s
 Simulation completed = 9.2104193%

Time Step =447
 deltaT = 0.00041302329 s
 Time = 0.18462141 s
 Simulation completed = 9.2310705%

Time Step =448
 deltaT = 0.00041302329 s
 Time = 0.18503443 s
 Simulation completed = 9.2517216%

Time Step =449
 deltaT = 0.00041302329 s
 Time = 0.18544746 s
 Simulation completed = 9.2723728%

Time Step =450
 deltaT = 0.00041302329 s
 Time = 0.18586048 s
 Simulation completed = 9.2930239%

Time Step =451
 deltaT = 0.00041302329 s
 Time = 0.1862735 s
 Simulation completed = 9.3136751%

Time Step =452
 deltaT = 0.00041302329 s
 Time = 0.18668653 s
 Simulation completed = 9.3343263%

Time Step =453
 deltaT = 0.00041302329 s
 Time = 0.18709955 s
 Simulation completed = 9.3549774%

Time Step =454
 deltaT = 0.00041302329 s
 Time = 0.18751257 s
 Simulation completed = 9.3756286%

Time Step =455
 deltaT = 0.00041302329 s
 Time = 0.1879256 s
 Simulation completed = 9.3962798%

Time Step =456
 deltaT = 0.00041302329 s
 Time = 0.18833862 s
 Simulation completed = 9.4169309%

Time Step =457
 deltaT = 0.00041302329 s
 Time = 0.18875164 s
 Simulation completed = 9.4375821%

Time Step =458
 deltaT = 0.00041302329 s
 Time = 0.18916467 s
 Simulation completed = 9.4582333%

Time Step =459
 deltaT = 0.00041302329 s
 Time = 0.18957769 s
 Simulation completed = 9.4788844%

Time Step =460
 deltaT = 0.00041302329 s
 Time = 0.18999071 s
 Simulation completed = 9.4995356%

Time Step =461
 deltaT = 0.00041302329 s
 Time = 0.19040374 s
 Simulation completed = 9.5201868%

Time Step =462
 deltaT = 0.00041302329 s
 Time = 0.19081676 s
 Simulation completed = 9.5408379%

Time Step =463
 deltaT = 0.00041302329 s
 Time = 0.19122978 s
 Simulation completed = 9.5614891%

Time Step =464
 deltaT = 0.00041302329 s
 Time = 0.1916428 s
 Simulation completed = 9.5821402%

Time Step =465
 deltaT = 0.00041302329 s
 Time = 0.19205583 s
 Simulation completed = 9.6027914%

Time Step =466
 deltaT = 0.00041302329 s
 Time = 0.19246885 s
 Simulation completed = 9.6234426%

Time Step =467
 deltaT = 0.00041302329 s
 Time = 0.19288187 s
 Simulation completed = 9.6440937%

Time Step =468
 deltaT = 0.00041302329 s
 Time = 0.1932949 s
 Simulation completed = 9.6647449%

Time Step =469
 deltaT = 0.00041302329 s
 Time = 0.19370792 s
 Simulation completed = 9.6853961%

Time Step =470
 deltaT = 0.00041302329 s
 Time = 0.19412094 s
 Simulation completed = 9.7060472%

Time Step =471
 deltaT = 0.00041302329 s
 Time = 0.19453397 s
 Simulation completed = 9.7266984%

Time Step =472
 deltaT = 0.00041302329 s
 Time = 0.19494699 s
 Simulation completed = 9.7473496%

Time Step =473
 deltaT = 0.00041302329 s
 Time = 0.19536001 s
 Simulation completed = 9.7680007%

Time Step =474
 deltaT = 0.00041302329 s
 Time = 0.19577304 s
 Simulation completed = 9.7886519%

Time Step =475
 deltaT = 0.00041302329 s
 Time = 0.19618606 s
 Simulation completed = 9.8093031%

Time Step =476
 deltaT = 0.00041302329 s
 Time = 0.19659908 s
 Simulation completed = 9.8299542%

Time Step =477
 deltaT = 0.00041302329 s
 Time = 0.19701211 s
 Simulation completed = 9.8506054%

Time Step =478
 deltaT = 0.00041302329 s
 Time = 0.19742513 s
 Simulation completed = 9.8712566%

Time Step =479
 deltaT = 0.00041302329 s
 Time = 0.19783815 s
 Simulation completed = 9.8919077%

Time Step =480
 deltaT = 0.00041302329 s
 Time = 0.19825118 s
 Simulation completed = 9.9125589%

Time Step =481
 deltaT = 0.00041302329 s
 Time = 0.1986642 s
 Simulation completed = 9.93321%

Time Step =482
 deltaT = 0.00041302329 s
 Time = 0.19907722 s
 Simulation completed = 9.9538612%

Time Step =483
 deltaT = 0.00041302329 s
 Time = 0.19949025 s
 Simulation completed = 9.9745124%

Time Step =484
 deltaT = 0.00041302329 s
 Time = 0.19990327 s
CoG: (7.5720981 7.5720939 -3.5237212e-06)
 Simulation completed = 9.9951635%

Time Step =485
 deltaT = 0.00041302329 s
 Time = 0.20031629 s
 Simulation completed = 10.015815%

Time Step =486
 deltaT = 0.00041302329 s
 Time = 0.20072932 s
 Simulation completed = 10.036466%

Time Step =487
 deltaT = 0.00041302329 s
 Time = 0.20114234 s
 Simulation completed = 10.057117%

Time Step =488
 deltaT = 0.00041302329 s
 Time = 0.20155536 s
 Simulation completed = 10.077768%

Time Step =489
 deltaT = 0.00041302329 s
 Time = 0.20196839 s
 Simulation completed = 10.098419%

Time Step =490
 deltaT = 0.00041302329 s
 Time = 0.20238141 s
 Simulation completed = 10.119071%

Time Step =491
 deltaT = 0.00041302329 s
 Time = 0.20279443 s
 Simulation completed = 10.139722%

Time Step =492
 deltaT = 0.00041302329 s
 Time = 0.20320746 s
 Simulation completed = 10.160373%

Time Step =493
 deltaT = 0.00041302329 s
 Time = 0.20362048 s
 Simulation completed = 10.181024%

Time Step =494
 deltaT = 0.00041302329 s
 Time = 0.2040335 s
 Simulation completed = 10.201675%

Time Step =495
 deltaT = 0.00041302329 s
 Time = 0.20444653 s
 Simulation completed = 10.222326%

Time Step =496
 deltaT = 0.00041302329 s
 Time = 0.20485955 s
 Simulation completed = 10.242978%

Time Step =497
 deltaT = 0.00041302329 s
 Time = 0.20527257 s
 Simulation completed = 10.263629%

Time Step =498
 deltaT = 0.00041302329 s
 Time = 0.2056856 s
 Simulation completed = 10.28428%

Time Step =499
 deltaT = 0.00041302329 s
 Time = 0.20609862 s
 Simulation completed = 10.304931%

Time Step =500
 deltaT = 0.00041302329 s
 Time = 0.20651164 s
 Simulation completed = 10.325582%

Time Step =501
 deltaT = 0.00041302329 s
 Time = 0.20692467 s
 Simulation completed = 10.346233%

Time Step =502
 deltaT = 0.00041302329 s
 Time = 0.20733769 s
 Simulation completed = 10.366884%

Time Step =503
 deltaT = 0.00041302329 s
 Time = 0.20775071 s
 Simulation completed = 10.387536%

Time Step =504
 deltaT = 0.00041302329 s
 Time = 0.20816374 s
 Simulation completed = 10.408187%

Time Step =505
 deltaT = 0.00041302329 s
 Time = 0.20857676 s
 Simulation completed = 10.428838%

Time Step =506
 deltaT = 0.00041302329 s
 Time = 0.20898978 s
 Simulation completed = 10.449489%

Time Step =507
 deltaT = 0.00041302329 s
 Time = 0.20940281 s
 Simulation completed = 10.47014%

Time Step =508
 deltaT = 0.00041302329 s
 Time = 0.20981583 s
 Simulation completed = 10.490791%

Time Step =509
 deltaT = 0.00041302329 s
 Time = 0.21022885 s
 Simulation completed = 10.511443%

Time Step =510
 deltaT = 0.00041302329 s
 Time = 0.21064188 s
 Simulation completed = 10.532094%

Time Step =511
 deltaT = 0.00041302329 s
 Time = 0.2110549 s
 Simulation completed = 10.552745%

Time Step =512
 deltaT = 0.00041302329 s
 Time = 0.21146792 s
 Simulation completed = 10.573396%

Time Step =513
 deltaT = 0.00041302329 s
 Time = 0.21188095 s
 Simulation completed = 10.594047%

Time Step =514
 deltaT = 0.00041302329 s
 Time = 0.21229397 s
 Simulation completed = 10.614698%

Time Step =515
 deltaT = 0.00041302329 s
 Time = 0.21270699 s
 Simulation completed = 10.63535%

Time Step =516
 deltaT = 0.00041302329 s
 Time = 0.21312002 s
 Simulation completed = 10.656001%

Time Step =517
 deltaT = 0.00041302329 s
 Time = 0.21353304 s
 Simulation completed = 10.676652%

Time Step =518
 deltaT = 0.00041302329 s
 Time = 0.21394606 s
 Simulation completed = 10.697303%

Time Step =519
 deltaT = 0.00041302329 s
 Time = 0.21435909 s
 Simulation completed = 10.717954%

Time Step =520
 deltaT = 0.00041302329 s
 Time = 0.21477211 s
 Simulation completed = 10.738605%

Time Step =521
 deltaT = 0.00041302329 s
 Time = 0.21518513 s
 Simulation completed = 10.759257%

Time Step =522
 deltaT = 0.00041302329 s
 Time = 0.21559816 s
 Simulation completed = 10.779908%

Time Step =523
 deltaT = 0.00041302329 s
 Time = 0.21601118 s
 Simulation completed = 10.800559%

Time Step =524
 deltaT = 0.00041302329 s
 Time = 0.2164242 s
 Simulation completed = 10.82121%

Time Step =525
 deltaT = 0.00041302329 s
 Time = 0.21683723 s
 Simulation completed = 10.841861%

Time Step =526
 deltaT = 0.00041302329 s
 Time = 0.21725025 s
 Simulation completed = 10.862512%

Time Step =527
 deltaT = 0.00041302329 s
 Time = 0.21766327 s
 Simulation completed = 10.883164%

Time Step =528
 deltaT = 0.00041302329 s
 Time = 0.2180763 s
 Simulation completed = 10.903815%

Time Step =529
 deltaT = 0.00041302329 s
 Time = 0.21848932 s
 Simulation completed = 10.924466%

Time Step =530
 deltaT = 0.00041302329 s
 Time = 0.21890234 s
 Simulation completed = 10.945117%

Time Step =531
 deltaT = 0.00041302329 s
 Time = 0.21931537 s
 Simulation completed = 10.965768%

Time Step =532
 deltaT = 0.00041302329 s
 Time = 0.21972839 s
 Simulation completed = 10.986419%

Time Step =533
 deltaT = 0.00041302329 s
 Time = 0.22014141 s
 Simulation completed = 11.007071%

Time Step =534
 deltaT = 0.00041302329 s
 Time = 0.22055444 s
 Simulation completed = 11.027722%

Time Step =535
 deltaT = 0.00041302329 s
 Time = 0.22096746 s
 Simulation completed = 11.048373%

Time Step =536
 deltaT = 0.00041302329 s
 Time = 0.22138048 s
 Simulation completed = 11.069024%

Time Step =537
 deltaT = 0.00041302329 s
 Time = 0.2217935 s
 Simulation completed = 11.089675%

Time Step =538
 deltaT = 0.00041302329 s
 Time = 0.22220653 s
 Simulation completed = 11.110326%

Time Step =539
 deltaT = 0.00041302329 s
 Time = 0.22261955 s
 Simulation completed = 11.130978%

Time Step =540
 deltaT = 0.00041302329 s
 Time = 0.22303257 s
 Simulation completed = 11.151629%

Time Step =541
 deltaT = 0.00041302329 s
 Time = 0.2234456 s
 Simulation completed = 11.17228%

Time Step =542
 deltaT = 0.00041302329 s
 Time = 0.22385862 s
 Simulation completed = 11.192931%

Time Step =543
 deltaT = 0.00041302329 s
 Time = 0.22427164 s
 Simulation completed = 11.213582%

Time Step =544
 deltaT = 0.00041302329 s
 Time = 0.22468467 s
 Simulation completed = 11.234233%

Time Step =545
 deltaT = 0.00041302329 s
 Time = 0.22509769 s
 Simulation completed = 11.254885%

Time Step =546
 deltaT = 0.00041302329 s
 Time = 0.22551071 s
 Simulation completed = 11.275536%

Time Step =547
 deltaT = 0.00041302329 s
 Time = 0.22592374 s
 Simulation completed = 11.296187%

Time Step =548
 deltaT = 0.00041302329 s
 Time = 0.22633676 s
 Simulation completed = 11.316838%

Time Step =549
 deltaT = 0.00041302329 s
 Time = 0.22674978 s
 Simulation completed = 11.337489%

Time Step =550
 deltaT = 0.00041302329 s
 Time = 0.22716281 s
 Simulation completed = 11.35814%

Time Step =551
 deltaT = 0.00041302329 s
 Time = 0.22757583 s
 Simulation completed = 11.378792%

Time Step =552
 deltaT = 0.00041302329 s
 Time = 0.22798885 s
 Simulation completed = 11.399443%

Time Step =553
 deltaT = 0.00041302329 s
 Time = 0.22840188 s
 Simulation completed = 11.420094%

Time Step =554
 deltaT = 0.00041302329 s
 Time = 0.2288149 s
 Simulation completed = 11.440745%

Time Step =555
 deltaT = 0.00041302329 s
 Time = 0.22922792 s
 Simulation completed = 11.461396%

Time Step =556
 deltaT = 0.00041302329 s
 Time = 0.22964095 s
 Simulation completed = 11.482047%

Time Step =557
 deltaT = 0.00041302329 s
 Time = 0.23005397 s
 Simulation completed = 11.502699%

Time Step =558
 deltaT = 0.00041302329 s
 Time = 0.23046699 s
 Simulation completed = 11.52335%

Time Step =559
 deltaT = 0.00041302329 s
 Time = 0.23088002 s
 Simulation completed = 11.544001%

Time Step =560
 deltaT = 0.00041302329 s
 Time = 0.23129304 s
 Simulation completed = 11.564652%

Time Step =561
 deltaT = 0.00041302329 s
 Time = 0.23170606 s
 Simulation completed = 11.585303%

Time Step =562
 deltaT = 0.00041302329 s
 Time = 0.23211909 s
 Simulation completed = 11.605954%

Time Step =563
 deltaT = 0.00041302329 s
 Time = 0.23253211 s
 Simulation completed = 11.626606%

Time Step =564
 deltaT = 0.00041302329 s
 Time = 0.23294513 s
 Simulation completed = 11.647257%

Time Step =565
 deltaT = 0.00041302329 s
 Time = 0.23335816 s
 Simulation completed = 11.667908%

Time Step =566
 deltaT = 0.00041302329 s
 Time = 0.23377118 s
 Simulation completed = 11.688559%

Time Step =567
 deltaT = 0.00041302329 s
 Time = 0.2341842 s
 Simulation completed = 11.70921%

Time Step =568
 deltaT = 0.00041302329 s
 Time = 0.23459723 s
 Simulation completed = 11.729861%

Time Step =569
 deltaT = 0.00041302329 s
 Time = 0.23501025 s
 Simulation completed = 11.750513%

Time Step =570
 deltaT = 0.00041302329 s
 Time = 0.23542327 s
 Simulation completed = 11.771164%

Time Step =571
 deltaT = 0.00041302329 s
 Time = 0.2358363 s
 Simulation completed = 11.791815%

Time Step =572
 deltaT = 0.00041302329 s
 Time = 0.23624932 s
 Simulation completed = 11.812466%

Time Step =573
 deltaT = 0.00041302329 s
 Time = 0.23666234 s
 Simulation completed = 11.833117%

Time Step =574
 deltaT = 0.00041302329 s
 Time = 0.23707537 s
 Simulation completed = 11.853768%

Time Step =575
 deltaT = 0.00041302329 s
 Time = 0.23748839 s
 Simulation completed = 11.874419%

Time Step =576
 deltaT = 0.00041302329 s
 Time = 0.23790141 s
 Simulation completed = 11.895071%

Time Step =577
 deltaT = 0.00041302329 s
 Time = 0.23831444 s
 Simulation completed = 11.915722%

Time Step =578
 deltaT = 0.00041302329 s
 Time = 0.23872746 s
 Simulation completed = 11.936373%

Time Step =579
 deltaT = 0.00041302329 s
 Time = 0.23914048 s
 Simulation completed = 11.957024%

Time Step =580
 deltaT = 0.00041302329 s
 Time = 0.23955351 s
 Simulation completed = 11.977675%

Time Step =581
 deltaT = 0.00041302329 s
 Time = 0.23996653 s
 Simulation completed = 11.998326%

Time Step =582
 deltaT = 0.00041302329 s
 Time = 0.24037955 s
 Simulation completed = 12.018978%

Time Step =583
 deltaT = 0.00041302329 s
 Time = 0.24079258 s
 Simulation completed = 12.039629%

Time Step =584
 deltaT = 0.00041302329 s
 Time = 0.2412056 s
 Simulation completed = 12.06028%

Time Step =585
 deltaT = 0.00041302329 s
 Time = 0.24161862 s
 Simulation completed = 12.080931%

Time Step =586
 deltaT = 0.00041302329 s
 Time = 0.24203165 s
 Simulation completed = 12.101582%

Time Step =587
 deltaT = 0.00041302329 s
 Time = 0.24244467 s
 Simulation completed = 12.122233%

Time Step =588
 deltaT = 0.00041302329 s
 Time = 0.24285769 s
 Simulation completed = 12.142885%

Time Step =589
 deltaT = 0.00041302329 s
 Time = 0.24327072 s
 Simulation completed = 12.163536%

Time Step =590
 deltaT = 0.00041302329 s
 Time = 0.24368374 s
 Simulation completed = 12.184187%

Time Step =591
 deltaT = 0.00041302329 s
 Time = 0.24409676 s
 Simulation completed = 12.204838%

Time Step =592
 deltaT = 0.00041302329 s
 Time = 0.24450979 s
 Simulation completed = 12.225489%

Time Step =593
 deltaT = 0.00041302329 s
 Time = 0.24492281 s
 Simulation completed = 12.24614%

Time Step =594
 deltaT = 0.00041302329 s
 Time = 0.24533583 s
 Simulation completed = 12.266792%

Time Step =595
 deltaT = 0.00041302329 s
 Time = 0.24574886 s
 Simulation completed = 12.287443%

Time Step =596
 deltaT = 0.00041302329 s
 Time = 0.24616188 s
 Simulation completed = 12.308094%

Time Step =597
 deltaT = 0.00041302329 s
 Time = 0.2465749 s
 Simulation completed = 12.328745%

Time Step =598
 deltaT = 0.00041302329 s
 Time = 0.24698793 s
 Simulation completed = 12.349396%

Time Step =599
 deltaT = 0.00041302329 s
 Time = 0.24740095 s
 Simulation completed = 12.370047%

Time Step =600
 deltaT = 0.00041302329 s
 Time = 0.24781397 s
 Simulation completed = 12.390699%

Time Step =601
 deltaT = 0.00041302329 s
 Time = 0.248227 s
 Simulation completed = 12.41135%

Time Step =602
 deltaT = 0.00041302329 s
 Time = 0.24864002 s
 Simulation completed = 12.432001%

Time Step =603
 deltaT = 0.00041302329 s
 Time = 0.24905304 s
 Simulation completed = 12.452652%

Time Step =604
 deltaT = 0.00041302329 s
 Time = 0.24946607 s
 Simulation completed = 12.473303%

Time Step =605
 deltaT = 0.00041302329 s
 Time = 0.24987909 s
 Simulation completed = 12.493954%

Time Step =606
 deltaT = 0.00041302329 s
 Time = 0.25029211 s
 Simulation completed = 12.514606%

Time Step =607
 deltaT = 0.00041302329 s
 Time = 0.25070513 s
 Simulation completed = 12.535257%

Time Step =608
 deltaT = 0.00041302329 s
 Time = 0.25111816 s
 Simulation completed = 12.555908%

Time Step =609
 deltaT = 0.00041302329 s
 Time = 0.25153118 s
 Simulation completed = 12.576559%

Time Step =610
 deltaT = 0.00041302329 s
 Time = 0.2519442 s
 Simulation completed = 12.59721%

Time Step =611
 deltaT = 0.00041302329 s
 Time = 0.25235723 s
 Simulation completed = 12.617861%

Time Step =612
 deltaT = 0.00041302329 s
 Time = 0.25277025 s
 Simulation completed = 12.638513%

Time Step =613
 deltaT = 0.00041302329 s
 Time = 0.25318327 s
 Simulation completed = 12.659164%

Time Step =614
 deltaT = 0.00041302329 s
 Time = 0.2535963 s
 Simulation completed = 12.679815%

Time Step =615
 deltaT = 0.00041302329 s
 Time = 0.25400932 s
 Simulation completed = 12.700466%

Time Step =616
 deltaT = 0.00041302329 s
 Time = 0.25442234 s
 Simulation completed = 12.721117%

Time Step =617
 deltaT = 0.00041302329 s
 Time = 0.25483537 s
 Simulation completed = 12.741768%

Time Step =618
 deltaT = 0.00041302329 s
 Time = 0.25524839 s
 Simulation completed = 12.76242%

Time Step =619
 deltaT = 0.00041302329 s
 Time = 0.25566141 s
 Simulation completed = 12.783071%

Time Step =620
 deltaT = 0.00041302329 s
 Time = 0.25607444 s
 Simulation completed = 12.803722%

Time Step =621
 deltaT = 0.00041302329 s
 Time = 0.25648746 s
 Simulation completed = 12.824373%

Time Step =622
 deltaT = 0.00041302329 s
 Time = 0.25690048 s
 Simulation completed = 12.845024%

Time Step =623
 deltaT = 0.00041302329 s
 Time = 0.25731351 s
 Simulation completed = 12.865675%

Time Step =624
 deltaT = 0.00041302329 s
 Time = 0.25772653 s
 Simulation completed = 12.886327%

Time Step =625
 deltaT = 0.00041302329 s
 Time = 0.25813955 s
 Simulation completed = 12.906978%

Time Step =626
 deltaT = 0.00041302329 s
 Time = 0.25855258 s
 Simulation completed = 12.927629%

Time Step =627
 deltaT = 0.00041302329 s
 Time = 0.2589656 s
 Simulation completed = 12.94828%

Time Step =628
 deltaT = 0.00041302329 s
 Time = 0.25937862 s
 Simulation completed = 12.968931%

Time Step =629
 deltaT = 0.00041302329 s
 Time = 0.25979165 s
 Simulation completed = 12.989582%

Time Step =630
 deltaT = 0.00041302329 s
 Time = 0.26020467 s
 Simulation completed = 13.010234%

Time Step =631
 deltaT = 0.00041302329 s
 Time = 0.26061769 s
 Simulation completed = 13.030885%

Time Step =632
 deltaT = 0.00041302329 s
 Time = 0.26103072 s
 Simulation completed = 13.051536%

Time Step =633
 deltaT = 0.00041302329 s
 Time = 0.26144374 s
 Simulation completed = 13.072187%

Time Step =634
 deltaT = 0.00041302329 s
 Time = 0.26185676 s
 Simulation completed = 13.092838%

Time Step =635
 deltaT = 0.00041302329 s
 Time = 0.26226979 s
 Simulation completed = 13.113489%

Time Step =636
 deltaT = 0.00041302329 s
 Time = 0.26268281 s
 Simulation completed = 13.134141%

Time Step =637
 deltaT = 0.00041302329 s
 Time = 0.26309583 s
 Simulation completed = 13.154792%

Time Step =638
 deltaT = 0.00041302329 s
 Time = 0.26350886 s
 Simulation completed = 13.175443%

Time Step =639
 deltaT = 0.00041302329 s
 Time = 0.26392188 s
 Simulation completed = 13.196094%

Time Step =640
 deltaT = 0.00041302329 s
 Time = 0.2643349 s
 Simulation completed = 13.216745%

Time Step =641
 deltaT = 0.00041302329 s
 Time = 0.26474793 s
 Simulation completed = 13.237396%

Time Step =642
 deltaT = 0.00041302329 s
 Time = 0.26516095 s
 Simulation completed = 13.258048%

Time Step =643
 deltaT = 0.00041302329 s
 Time = 0.26557397 s
 Simulation completed = 13.278699%

Time Step =644
 deltaT = 0.00041302329 s
 Time = 0.265987 s
 Simulation completed = 13.29935%

Time Step =645
 deltaT = 0.00041302329 s
 Time = 0.26640002 s
 Simulation completed = 13.320001%

Time Step =646
 deltaT = 0.00041302329 s
 Time = 0.26681304 s
 Simulation completed = 13.340652%

Time Step =647
 deltaT = 0.00041302329 s
 Time = 0.26722607 s
 Simulation completed = 13.361303%

Time Step =648
 deltaT = 0.00041302329 s
 Time = 0.26763909 s
 Simulation completed = 13.381954%

Time Step =649
 deltaT = 0.00041302329 s
 Time = 0.26805211 s
 Simulation completed = 13.402606%

Time Step =650
 deltaT = 0.00041302329 s
 Time = 0.26846514 s
 Simulation completed = 13.423257%

Time Step =651
 deltaT = 0.00041302329 s
 Time = 0.26887816 s
 Simulation completed = 13.443908%

Time Step =652
 deltaT = 0.00041302329 s
 Time = 0.26929118 s
 Simulation completed = 13.464559%

Time Step =653
 deltaT = 0.00041302329 s
 Time = 0.26970421 s
 Simulation completed = 13.48521%

Time Step =654
 deltaT = 0.00041302329 s
 Time = 0.27011723 s
 Simulation completed = 13.505861%

Time Step =655
 deltaT = 0.00041302329 s
 Time = 0.27053025 s
 Simulation completed = 13.526513%

Time Step =656
 deltaT = 0.00041302329 s
 Time = 0.27094328 s
 Simulation completed = 13.547164%

Time Step =657
 deltaT = 0.00041302329 s
 Time = 0.2713563 s
 Simulation completed = 13.567815%

Time Step =658
 deltaT = 0.00041302329 s
 Time = 0.27176932 s
 Simulation completed = 13.588466%

Time Step =659
 deltaT = 0.00041302329 s
 Time = 0.27218235 s
 Simulation completed = 13.609117%

Time Step =660
 deltaT = 0.00041302329 s
 Time = 0.27259537 s
 Simulation completed = 13.629768%

Time Step =661
 deltaT = 0.00041302329 s
 Time = 0.27300839 s
 Simulation completed = 13.65042%

Time Step =662
 deltaT = 0.00041302329 s
 Time = 0.27342142 s
 Simulation completed = 13.671071%

Time Step =663
 deltaT = 0.00041302329 s
 Time = 0.27383444 s
 Simulation completed = 13.691722%

Time Step =664
 deltaT = 0.00041302329 s
 Time = 0.27424746 s
 Simulation completed = 13.712373%

Time Step =665
 deltaT = 0.00041302329 s
 Time = 0.27466049 s
 Simulation completed = 13.733024%

Time Step =666
 deltaT = 0.00041302329 s
 Time = 0.27507351 s
 Simulation completed = 13.753675%

Time Step =667
 deltaT = 0.00041302329 s
 Time = 0.27548653 s
 Simulation completed = 13.774327%

Time Step =668
 deltaT = 0.00041302329 s
 Time = 0.27589956 s
 Simulation completed = 13.794978%

Time Step =669
 deltaT = 0.00041302329 s
 Time = 0.27631258 s
 Simulation completed = 13.815629%

Time Step =670
 deltaT = 0.00041302329 s
 Time = 0.2767256 s
 Simulation completed = 13.83628%

Time Step =671
 deltaT = 0.00041302329 s
 Time = 0.27713863 s
 Simulation completed = 13.856931%

Time Step =672
 deltaT = 0.00041302329 s
 Time = 0.27755165 s
 Simulation completed = 13.877582%

Time Step =673
 deltaT = 0.00041302329 s
 Time = 0.27796467 s
 Simulation completed = 13.898234%

Time Step =674
 deltaT = 0.00041302329 s
 Time = 0.2783777 s
 Simulation completed = 13.918885%

Time Step =675
 deltaT = 0.00041302329 s
 Time = 0.27879072 s
 Simulation completed = 13.939536%

Time Step =676
 deltaT = 0.00041302329 s
 Time = 0.27920374 s
 Simulation completed = 13.960187%

Time Step =677
 deltaT = 0.00041302329 s
 Time = 0.27961677 s
 Simulation completed = 13.980838%

Time Step =678
 deltaT = 0.00041302329 s
 Time = 0.28002979 s
 Simulation completed = 14.001489%

Time Step =679
 deltaT = 0.00041302329 s
 Time = 0.28044281 s
 Simulation completed = 14.022141%

Time Step =680
 deltaT = 0.00041302329 s
 Time = 0.28085583 s
 Simulation completed = 14.042792%

Time Step =681
 deltaT = 0.00041302329 s
 Time = 0.28126886 s
 Simulation completed = 14.063443%

Time Step =682
 deltaT = 0.00041302329 s
 Time = 0.28168188 s
 Simulation completed = 14.084094%

Time Step =683
 deltaT = 0.00041302329 s
 Time = 0.2820949 s
 Simulation completed = 14.104745%

Time Step =684
 deltaT = 0.00041302329 s
 Time = 0.28250793 s
 Simulation completed = 14.125396%

Time Step =685
 deltaT = 0.00041302329 s
 Time = 0.28292095 s
 Simulation completed = 14.146048%

Time Step =686
 deltaT = 0.00041302329 s
 Time = 0.28333397 s
 Simulation completed = 14.166699%

Time Step =687
 deltaT = 0.00041302329 s
 Time = 0.283747 s
 Simulation completed = 14.18735%

Time Step =688
 deltaT = 0.00041302329 s
 Time = 0.28416002 s
 Simulation completed = 14.208001%

Time Step =689
 deltaT = 0.00041302329 s
 Time = 0.28457304 s
 Simulation completed = 14.228652%

Time Step =690
 deltaT = 0.00041302329 s
 Time = 0.28498607 s
 Simulation completed = 14.249303%

Time Step =691
 deltaT = 0.00041302329 s
 Time = 0.28539909 s
 Simulation completed = 14.269955%

Time Step =692
 deltaT = 0.00041302329 s
 Time = 0.28581211 s
 Simulation completed = 14.290606%

Time Step =693
 deltaT = 0.00041302329 s
 Time = 0.28622514 s
 Simulation completed = 14.311257%

Time Step =694
 deltaT = 0.00041302329 s
 Time = 0.28663816 s
 Simulation completed = 14.331908%

Time Step =695
 deltaT = 0.00041302329 s
 Time = 0.28705118 s
 Simulation completed = 14.352559%

Time Step =696
 deltaT = 0.00041302329 s
 Time = 0.28746421 s
 Simulation completed = 14.37321%

Time Step =697
 deltaT = 0.00041302329 s
 Time = 0.28787723 s
 Simulation completed = 14.393862%

Time Step =698
 deltaT = 0.00041302329 s
 Time = 0.28829025 s
 Simulation completed = 14.414513%

Time Step =699
 deltaT = 0.00041302329 s
 Time = 0.28870328 s
 Simulation completed = 14.435164%

Time Step =700
 deltaT = 0.00041302329 s
 Time = 0.2891163 s
 Simulation completed = 14.455815%

Time Step =701
 deltaT = 0.00041302329 s
 Time = 0.28952932 s
 Simulation completed = 14.476466%

Time Step =702
 deltaT = 0.00041302329 s
 Time = 0.28994235 s
 Simulation completed = 14.497117%

Time Step =703
 deltaT = 0.00041302329 s
 Time = 0.29035537 s
 Simulation completed = 14.517769%

Time Step =704
 deltaT = 0.00041302329 s
 Time = 0.29076839 s
 Simulation completed = 14.53842%

Time Step =705
 deltaT = 0.00041302329 s
 Time = 0.29118142 s
 Simulation completed = 14.559071%

Time Step =706
 deltaT = 0.00041302329 s
 Time = 0.29159444 s
 Simulation completed = 14.579722%

Time Step =707
 deltaT = 0.00041302329 s
 Time = 0.29200746 s
 Simulation completed = 14.600373%

Time Step =708
 deltaT = 0.00041302329 s
 Time = 0.29242049 s
 Simulation completed = 14.621024%

Time Step =709
 deltaT = 0.00041302329 s
 Time = 0.29283351 s
 Simulation completed = 14.641676%

Time Step =710
 deltaT = 0.00041302329 s
 Time = 0.29324653 s
 Simulation completed = 14.662327%

Time Step =711
 deltaT = 0.00041302329 s
 Time = 0.29365956 s
 Simulation completed = 14.682978%

Time Step =712
 deltaT = 0.00041302329 s
 Time = 0.29407258 s
 Simulation completed = 14.703629%

Time Step =713
 deltaT = 0.00041302329 s
 Time = 0.2944856 s
 Simulation completed = 14.72428%

Time Step =714
 deltaT = 0.00041302329 s
 Time = 0.29489863 s
 Simulation completed = 14.744931%

Time Step =715
 deltaT = 0.00041302329 s
 Time = 0.29531165 s
 Simulation completed = 14.765582%

Time Step =716
 deltaT = 0.00041302329 s
 Time = 0.29572467 s
 Simulation completed = 14.786234%

Time Step =717
 deltaT = 0.00041302329 s
 Time = 0.2961377 s
 Simulation completed = 14.806885%

Time Step =718
 deltaT = 0.00041302329 s
 Time = 0.29655072 s
 Simulation completed = 14.827536%

Time Step =719
 deltaT = 0.00041302329 s
 Time = 0.29696374 s
 Simulation completed = 14.848187%

Time Step =720
 deltaT = 0.00041302329 s
 Time = 0.29737677 s
 Simulation completed = 14.868838%

Time Step =721
 deltaT = 0.00041302329 s
 Time = 0.29778979 s
 Simulation completed = 14.889489%

Time Step =722
 deltaT = 0.00041302329 s
 Time = 0.29820281 s
 Simulation completed = 14.910141%

Time Step =723
 deltaT = 0.00041302329 s
 Time = 0.29861584 s
 Simulation completed = 14.930792%

Time Step =724
 deltaT = 0.00041302329 s
 Time = 0.29902886 s
 Simulation completed = 14.951443%

Time Step =725
 deltaT = 0.00041302329 s
 Time = 0.29944188 s
 Simulation completed = 14.972094%

Time Step =726
 deltaT = 0.00041302329 s
 Time = 0.29985491 s
CoG: (11.358145 11.358141 -1.5541589e-07)
 Simulation completed = 14.992745%

Time Step =727
 deltaT = 0.00041302329 s
 Time = 0.30026793 s
 Simulation completed = 15.013396%

Time Step =728
 deltaT = 0.00041302329 s
 Time = 0.30068095 s
 Simulation completed = 15.034048%

Time Step =729
 deltaT = 0.00041302329 s
 Time = 0.30109398 s
 Simulation completed = 15.054699%

Time Step =730
 deltaT = 0.00041302329 s
 Time = 0.301507 s
 Simulation completed = 15.07535%

Time Step =731
 deltaT = 0.00041302329 s
 Time = 0.30192002 s
 Simulation completed = 15.096001%

Time Step =732
 deltaT = 0.00041302329 s
 Time = 0.30233305 s
 Simulation completed = 15.116652%

Time Step =733
 deltaT = 0.00041302329 s
 Time = 0.30274607 s
 Simulation completed = 15.137303%

Time Step =734
 deltaT = 0.00041302329 s
 Time = 0.30315909 s
 Simulation completed = 15.157955%

Time Step =735
 deltaT = 0.00041302329 s
 Time = 0.30357212 s
 Simulation completed = 15.178606%

Time Step =736
 deltaT = 0.00041302329 s
 Time = 0.30398514 s
 Simulation completed = 15.199257%

Time Step =737
 deltaT = 0.00041302329 s
 Time = 0.30439816 s
 Simulation completed = 15.219908%

Time Step =738
 deltaT = 0.00041302329 s
 Time = 0.30481119 s
 Simulation completed = 15.240559%

Time Step =739
 deltaT = 0.00041302329 s
 Time = 0.30522421 s
 Simulation completed = 15.26121%

Time Step =740
 deltaT = 0.00041302329 s
 Time = 0.30563723 s
 Simulation completed = 15.281862%

Time Step =741
 deltaT = 0.00041302329 s
 Time = 0.30605026 s
 Simulation completed = 15.302513%

Time Step =742
 deltaT = 0.00041302329 s
 Time = 0.30646328 s
 Simulation completed = 15.323164%

Time Step =743
 deltaT = 0.00041302329 s
 Time = 0.3068763 s
 Simulation completed = 15.343815%

Time Step =744
 deltaT = 0.00041302329 s
 Time = 0.30728933 s
 Simulation completed = 15.364466%

Time Step =745
 deltaT = 0.00041302329 s
 Time = 0.30770235 s
 Simulation completed = 15.385117%

Time Step =746
 deltaT = 0.00041302329 s
 Time = 0.30811537 s
 Simulation completed = 15.405769%

Time Step =747
 deltaT = 0.00041302329 s
 Time = 0.3085284 s
 Simulation completed = 15.42642%

Time Step =748
 deltaT = 0.00041302329 s
 Time = 0.30894142 s
 Simulation completed = 15.447071%

Time Step =749
 deltaT = 0.00041302329 s
 Time = 0.30935444 s
 Simulation completed = 15.467722%

Time Step =750
 deltaT = 0.00041302329 s
 Time = 0.30976746 s
 Simulation completed = 15.488373%

Time Step =751
 deltaT = 0.00041302329 s
 Time = 0.31018049 s
 Simulation completed = 15.509024%

Time Step =752
 deltaT = 0.00041302329 s
 Time = 0.31059351 s
 Simulation completed = 15.529676%

Time Step =753
 deltaT = 0.00041302329 s
 Time = 0.31100653 s
 Simulation completed = 15.550327%

Time Step =754
 deltaT = 0.00041302329 s
 Time = 0.31141956 s
 Simulation completed = 15.570978%

Time Step =755
 deltaT = 0.00041302329 s
 Time = 0.31183258 s
 Simulation completed = 15.591629%

Time Step =756
 deltaT = 0.00041302329 s
 Time = 0.3122456 s
 Simulation completed = 15.61228%

Time Step =757
 deltaT = 0.00041302329 s
 Time = 0.31265863 s
 Simulation completed = 15.632931%

Time Step =758
 deltaT = 0.00041302329 s
 Time = 0.31307165 s
 Simulation completed = 15.653583%

Time Step =759
 deltaT = 0.00041302329 s
 Time = 0.31348467 s
 Simulation completed = 15.674234%

Time Step =760
 deltaT = 0.00041302329 s
 Time = 0.3138977 s
 Simulation completed = 15.694885%

Time Step =761
 deltaT = 0.00041302329 s
 Time = 0.31431072 s
 Simulation completed = 15.715536%

Time Step =762
 deltaT = 0.00041302329 s
 Time = 0.31472374 s
 Simulation completed = 15.736187%

Time Step =763
 deltaT = 0.00041302329 s
 Time = 0.31513677 s
 Simulation completed = 15.756838%

Time Step =764
 deltaT = 0.00041302329 s
 Time = 0.31554979 s
 Simulation completed = 15.77749%

Time Step =765
 deltaT = 0.00041302329 s
 Time = 0.31596281 s
 Simulation completed = 15.798141%

Time Step =766
 deltaT = 0.00041302329 s
 Time = 0.31637584 s
 Simulation completed = 15.818792%

Time Step =767
 deltaT = 0.00041302329 s
 Time = 0.31678886 s
 Simulation completed = 15.839443%

Time Step =768
 deltaT = 0.00041302329 s
 Time = 0.31720188 s
 Simulation completed = 15.860094%

Time Step =769
 deltaT = 0.00041302329 s
 Time = 0.31761491 s
 Simulation completed = 15.880745%

Time Step =770
 deltaT = 0.00041302329 s
 Time = 0.31802793 s
 Simulation completed = 15.901397%

Time Step =771
 deltaT = 0.00041302329 s
 Time = 0.31844095 s
 Simulation completed = 15.922048%

Time Step =772
 deltaT = 0.00041302329 s
 Time = 0.31885398 s
 Simulation completed = 15.942699%

Time Step =773
 deltaT = 0.00041302329 s
 Time = 0.319267 s
 Simulation completed = 15.96335%

Time Step =774
 deltaT = 0.00041302329 s
 Time = 0.31968002 s
 Simulation completed = 15.984001%

Time Step =775
 deltaT = 0.00041302329 s
 Time = 0.32009305 s
 Simulation completed = 16.004652%

Time Step =776
 deltaT = 0.00041302329 s
 Time = 0.32050607 s
 Simulation completed = 16.025304%

Time Step =777
 deltaT = 0.00041302329 s
 Time = 0.32091909 s
 Simulation completed = 16.045955%

Time Step =778
 deltaT = 0.00041302329 s
 Time = 0.32133212 s
 Simulation completed = 16.066606%

Time Step =779
 deltaT = 0.00041302329 s
 Time = 0.32174514 s
 Simulation completed = 16.087257%

Time Step =780
 deltaT = 0.00041302329 s
 Time = 0.32215816 s
 Simulation completed = 16.107908%

Time Step =781
 deltaT = 0.00041302329 s
 Time = 0.32257119 s
 Simulation completed = 16.128559%

Time Step =782
 deltaT = 0.00041302329 s
 Time = 0.32298421 s
 Simulation completed = 16.149211%

Time Step =783
 deltaT = 0.00041302329 s
 Time = 0.32339723 s
 Simulation completed = 16.169862%

Time Step =784
 deltaT = 0.00041302329 s
 Time = 0.32381026 s
 Simulation completed = 16.190513%

Time Step =785
 deltaT = 0.00041302329 s
 Time = 0.32422328 s
 Simulation completed = 16.211164%

Time Step =786
 deltaT = 0.00041302329 s
 Time = 0.3246363 s
 Simulation completed = 16.231815%

Time Step =787
 deltaT = 0.00041302329 s
 Time = 0.32504933 s
 Simulation completed = 16.252466%

Time Step =788
 deltaT = 0.00041302329 s
 Time = 0.32546235 s
 Simulation completed = 16.273117%

Time Step =789
 deltaT = 0.00041302329 s
 Time = 0.32587537 s
 Simulation completed = 16.293769%

Time Step =790
 deltaT = 0.00041302329 s
 Time = 0.3262884 s
 Simulation completed = 16.31442%

Time Step =791
 deltaT = 0.00041302329 s
 Time = 0.32670142 s
 Simulation completed = 16.335071%

Time Step =792
 deltaT = 0.00041302329 s
 Time = 0.32711444 s
[...]

Time Step =4642
 deltaT = 0.00041302329 s
 Time = 1.9172541 s
 Simulation completed = 95.862705%

Time Step =4643
 deltaT = 0.00041302329 s
 Time = 1.9176671 s
 Simulation completed = 95.883356%

Time Step =4644
 deltaT = 0.00041302329 s
 Time = 1.9180801 s
 Simulation completed = 95.904007%

Time Step =4645
 deltaT = 0.00041302329 s
 Time = 1.9184932 s
 Simulation completed = 95.924658%

Time Step =4646
 deltaT = 0.00041302329 s
 Time = 1.9189062 s
 Simulation completed = 95.945309%

Time Step =4647
 deltaT = 0.00041302329 s
 Time = 1.9193192 s
 Simulation completed = 95.965961%

Time Step =4648
 deltaT = 0.00041302329 s
 Time = 1.9197322 s
 Simulation completed = 95.986612%

Time Step =4649
 deltaT = 0.00041302329 s
 Time = 1.9201453 s
 Simulation completed = 96.007263%

Time Step =4650
 deltaT = 0.00041302329 s
 Time = 1.9205583 s
 Simulation completed = 96.027914%

Time Step =4651
 deltaT = 0.00041302329 s
 Time = 1.9209713 s
 Simulation completed = 96.048565%

Time Step =4652
 deltaT = 0.00041302329 s
 Time = 1.9213843 s
 Simulation completed = 96.069216%

Time Step =4653
 deltaT = 0.00041302329 s
 Time = 1.9217974 s
 Simulation completed = 96.089868%

Time Step =4654
 deltaT = 0.00041302329 s
 Time = 1.9222104 s
 Simulation completed = 96.110519%

Time Step =4655
 deltaT = 0.00041302329 s
 Time = 1.9226234 s
 Simulation completed = 96.13117%

Time Step =4656
 deltaT = 0.00041302329 s
 Time = 1.9230364 s
 Simulation completed = 96.151821%

Time Step =4657
 deltaT = 0.00041302329 s
 Time = 1.9234494 s
 Simulation completed = 96.172472%

Time Step =4658
 deltaT = 0.00041302329 s
 Time = 1.9238625 s
 Simulation completed = 96.193123%

Time Step =4659
 deltaT = 0.00041302329 s
 Time = 1.9242755 s
 Simulation completed = 96.213775%

Time Step =4660
 deltaT = 0.00041302329 s
 Time = 1.9246885 s
 Simulation completed = 96.234426%

Time Step =4661
 deltaT = 0.00041302329 s
 Time = 1.9251015 s
 Simulation completed = 96.255077%

Time Step =4662
 deltaT = 0.00041302329 s
 Time = 1.9255146 s
 Simulation completed = 96.275728%

Time Step =4663
 deltaT = 0.00041302329 s
 Time = 1.9259276 s
 Simulation completed = 96.296379%

Time Step =4664
 deltaT = 0.00041302329 s
 Time = 1.9263406 s
 Simulation completed = 96.31703%

Time Step =4665
 deltaT = 0.00041302329 s
 Time = 1.9267536 s
 Simulation completed = 96.337682%

Time Step =4666
 deltaT = 0.00041302329 s
 Time = 1.9271667 s
 Simulation completed = 96.358333%

Time Step =4667
 deltaT = 0.00041302329 s
 Time = 1.9275797 s
 Simulation completed = 96.378984%

Time Step =4668
 deltaT = 0.00041302329 s
 Time = 1.9279927 s
 Simulation completed = 96.399635%

Time Step =4669
 deltaT = 0.00041302329 s
 Time = 1.9284057 s
 Simulation completed = 96.420286%

Time Step =4670
 deltaT = 0.00041302329 s
 Time = 1.9288187 s
 Simulation completed = 96.440937%

Time Step =4671
 deltaT = 0.00041302329 s
 Time = 1.9292318 s
 Simulation completed = 96.461589%

Time Step =4672
 deltaT = 0.00041302329 s
 Time = 1.9296448 s
 Simulation completed = 96.48224%

Time Step =4673
 deltaT = 0.00041302329 s
 Time = 1.9300578 s
 Simulation completed = 96.502891%

Time Step =4674
 deltaT = 0.00041302329 s
 Time = 1.9304708 s
 Simulation completed = 96.523542%

Time Step =4675
 deltaT = 0.00041302329 s
 Time = 1.9308839 s
 Simulation completed = 96.544193%

Time Step =4676
 deltaT = 0.00041302329 s
 Time = 1.9312969 s
 Simulation completed = 96.564844%

Time Step =4677
 deltaT = 0.00041302329 s
 Time = 1.9317099 s
 Simulation completed = 96.585496%

Time Step =4678
 deltaT = 0.00041302329 s
 Time = 1.9321229 s
 Simulation completed = 96.606147%

Time Step =4679
 deltaT = 0.00041302329 s
 Time = 1.932536 s
 Simulation completed = 96.626798%

Time Step =4680
 deltaT = 0.00041302329 s
 Time = 1.932949 s
 Simulation completed = 96.647449%

Time Step =4681
 deltaT = 0.00041302329 s
 Time = 1.933362 s
 Simulation completed = 96.6681%

Time Step =4682
 deltaT = 0.00041302329 s
 Time = 1.933775 s
 Simulation completed = 96.688751%

Time Step =4683
 deltaT = 0.00041302329 s
 Time = 1.9341881 s
 Simulation completed = 96.709403%

Time Step =4684
 deltaT = 0.00041302329 s
 Time = 1.9346011 s
 Simulation completed = 96.730054%

Time Step =4685
 deltaT = 0.00041302329 s
 Time = 1.9350141 s
 Simulation completed = 96.750705%

Time Step =4686
 deltaT = 0.00041302329 s
 Time = 1.9354271 s
 Simulation completed = 96.771356%

Time Step =4687
 deltaT = 0.00041302329 s
 Time = 1.9358401 s
 Simulation completed = 96.792007%

Time Step =4688
 deltaT = 0.00041302329 s
 Time = 1.9362532 s
 Simulation completed = 96.812658%

Time Step =4689
 deltaT = 0.00041302329 s
 Time = 1.9366662 s
 Simulation completed = 96.83331%

Time Step =4690
 deltaT = 0.00041302329 s
 Time = 1.9370792 s
 Simulation completed = 96.853961%

Time Step =4691
 deltaT = 0.00041302329 s
 Time = 1.9374922 s
 Simulation completed = 96.874612%

Time Step =4692
 deltaT = 0.00041302329 s
 Time = 1.9379053 s
 Simulation completed = 96.895263%

Time Step =4693
 deltaT = 0.00041302329 s
 Time = 1.9383183 s
 Simulation completed = 96.915914%

Time Step =4694
 deltaT = 0.00041302329 s
 Time = 1.9387313 s
 Simulation completed = 96.936565%

Time Step =4695
 deltaT = 0.00041302329 s
 Time = 1.9391443 s
 Simulation completed = 96.957217%

Time Step =4696
 deltaT = 0.00041302329 s
 Time = 1.9395574 s
 Simulation completed = 96.977868%

Time Step =4697
 deltaT = 0.00041302329 s
 Time = 1.9399704 s
 Simulation completed = 96.998519%

Time Step =4698
 deltaT = 0.00041302329 s
 Time = 1.9403834 s
 Simulation completed = 97.01917%

Time Step =4699
 deltaT = 0.00041302329 s
 Time = 1.9407964 s
 Simulation completed = 97.039821%

Time Step =4700
 deltaT = 0.00041302329 s
 Time = 1.9412094 s
 Simulation completed = 97.060472%

Time Step =4701
 deltaT = 0.00041302329 s
 Time = 1.9416225 s
 Simulation completed = 97.081124%

Time Step =4702
 deltaT = 0.00041302329 s
 Time = 1.9420355 s
 Simulation completed = 97.101775%

Time Step =4703
 deltaT = 0.00041302329 s
 Time = 1.9424485 s
 Simulation completed = 97.122426%

Time Step =4704
 deltaT = 0.00041302329 s
 Time = 1.9428615 s
 Simulation completed = 97.143077%

Time Step =4705
 deltaT = 0.00041302329 s
 Time = 1.9432746 s
 Simulation completed = 97.163728%

Time Step =4706
 deltaT = 0.00041302329 s
 Time = 1.9436876 s
 Simulation completed = 97.184379%

Time Step =4707
 deltaT = 0.00041302329 s
 Time = 1.9441006 s
 Simulation completed = 97.205031%

Time Step =4708
 deltaT = 0.00041302329 s
 Time = 1.9445136 s
 Simulation completed = 97.225682%

Time Step =4709
 deltaT = 0.00041302329 s
 Time = 1.9449267 s
 Simulation completed = 97.246333%

Time Step =4710
 deltaT = 0.00041302329 s
 Time = 1.9453397 s
 Simulation completed = 97.266984%

Time Step =4711
 deltaT = 0.00041302329 s
 Time = 1.9457527 s
 Simulation completed = 97.287635%

Time Step =4712
 deltaT = 0.00041302329 s
 Time = 1.9461657 s
 Simulation completed = 97.308286%

Time Step =4713
 deltaT = 0.00041302329 s
 Time = 1.9465787 s
 Simulation completed = 97.328937%

Time Step =4714
 deltaT = 0.00041302329 s
 Time = 1.9469918 s
 Simulation completed = 97.349589%

Time Step =4715
 deltaT = 0.00041302329 s
 Time = 1.9474048 s
 Simulation completed = 97.37024%

Time Step =4716
 deltaT = 0.00041302329 s
 Time = 1.9478178 s
 Simulation completed = 97.390891%

Time Step =4717
 deltaT = 0.00041302329 s
 Time = 1.9482308 s
 Simulation completed = 97.411542%

Time Step =4718
 deltaT = 0.00041302329 s
 Time = 1.9486439 s
 Simulation completed = 97.432193%

Time Step =4719
 deltaT = 0.00041302329 s
 Time = 1.9490569 s
 Simulation completed = 97.452844%

Time Step =4720
 deltaT = 0.00041302329 s
 Time = 1.9494699 s
 Simulation completed = 97.473496%

Time Step =4721
 deltaT = 0.00041302329 s
 Time = 1.9498829 s
 Simulation completed = 97.494147%

Time Step =4722
 deltaT = 0.00041302329 s
 Time = 1.950296 s
 Simulation completed = 97.514798%

Time Step =4723
 deltaT = 0.00041302329 s
 Time = 1.950709 s
 Simulation completed = 97.535449%

Time Step =4724
 deltaT = 0.00041302329 s
 Time = 1.951122 s
 Simulation completed = 97.5561%

Time Step =4725
 deltaT = 0.00041302329 s
 Time = 1.951535 s
 Simulation completed = 97.576751%

Time Step =4726
 deltaT = 0.00041302329 s
 Time = 1.9519481 s
 Simulation completed = 97.597403%

Time Step =4727
 deltaT = 0.00041302329 s
 Time = 1.9523611 s
 Simulation completed = 97.618054%

Time Step =4728
 deltaT = 0.00041302329 s
 Time = 1.9527741 s
 Simulation completed = 97.638705%

Time Step =4729
 deltaT = 0.00041302329 s
 Time = 1.9531871 s
 Simulation completed = 97.659356%

Time Step =4730
 deltaT = 0.00041302329 s
 Time = 1.9536001 s
 Simulation completed = 97.680007%

Time Step =4731
 deltaT = 0.00041302329 s
 Time = 1.9540132 s
 Simulation completed = 97.700658%

Time Step =4732
 deltaT = 0.00041302329 s
 Time = 1.9544262 s
 Simulation completed = 97.72131%

Time Step =4733
 deltaT = 0.00041302329 s
 Time = 1.9548392 s
 Simulation completed = 97.741961%

Time Step =4734
 deltaT = 0.00041302329 s
 Time = 1.9552522 s
 Simulation completed = 97.762612%

Time Step =4735
 deltaT = 0.00041302329 s
 Time = 1.9556653 s
 Simulation completed = 97.783263%

Time Step =4736
 deltaT = 0.00041302329 s
 Time = 1.9560783 s
 Simulation completed = 97.803914%

Time Step =4737
 deltaT = 0.00041302329 s
 Time = 1.9564913 s
 Simulation completed = 97.824565%

Time Step =4738
 deltaT = 0.00041302329 s
 Time = 1.9569043 s
 Simulation completed = 97.845217%

Time Step =4739
 deltaT = 0.00041302329 s
 Time = 1.9573174 s
 Simulation completed = 97.865868%

Time Step =4740
 deltaT = 0.00041302329 s
 Time = 1.9577304 s
 Simulation completed = 97.886519%

Time Step =4741
 deltaT = 0.00041302329 s
 Time = 1.9581434 s
 Simulation completed = 97.90717%

Time Step =4742
 deltaT = 0.00041302329 s
 Time = 1.9585564 s
 Simulation completed = 97.927821%

Time Step =4743
 deltaT = 0.00041302329 s
 Time = 1.9589694 s
 Simulation completed = 97.948472%

Time Step =4744
 deltaT = 0.00041302329 s
 Time = 1.9593825 s
 Simulation completed = 97.969124%

Time Step =4745
 deltaT = 0.00041302329 s
 Time = 1.9597955 s
 Simulation completed = 97.989775%

Time Step =4746
 deltaT = 0.00041302329 s
 Time = 1.9602085 s
 Simulation completed = 98.010426%

Time Step =4747
 deltaT = 0.00041302329 s
 Time = 1.9606215 s
 Simulation completed = 98.031077%

Time Step =4748
 deltaT = 0.00041302329 s
 Time = 1.9610346 s
 Simulation completed = 98.051728%

Time Step =4749
 deltaT = 0.00041302329 s
 Time = 1.9614476 s
 Simulation completed = 98.072379%

Time Step =4750
 deltaT = 0.00041302329 s
 Time = 1.9618606 s
 Simulation completed = 98.093031%

Time Step =4751
 deltaT = 0.00041302329 s
 Time = 1.9622736 s
 Simulation completed = 98.113682%

Time Step =4752
 deltaT = 0.00041302329 s
 Time = 1.9626867 s
 Simulation completed = 98.134333%

Time Step =4753
 deltaT = 0.00041302329 s
 Time = 1.9630997 s
 Simulation completed = 98.154984%

Time Step =4754
 deltaT = 0.00041302329 s
 Time = 1.9635127 s
 Simulation completed = 98.175635%

Time Step =4755
 deltaT = 0.00041302329 s
 Time = 1.9639257 s
 Simulation completed = 98.196286%

Time Step =4756
 deltaT = 0.00041302329 s
 Time = 1.9643388 s
 Simulation completed = 98.216938%

Time Step =4757
 deltaT = 0.00041302329 s
 Time = 1.9647518 s
 Simulation completed = 98.237589%

Time Step =4758
 deltaT = 0.00041302329 s
 Time = 1.9651648 s
 Simulation completed = 98.25824%

Time Step =4759
 deltaT = 0.00041302329 s
 Time = 1.9655778 s
 Simulation completed = 98.278891%

Time Step =4760
 deltaT = 0.00041302329 s
 Time = 1.9659908 s
 Simulation completed = 98.299542%

Time Step =4761
 deltaT = 0.00041302329 s
 Time = 1.9664039 s
 Simulation completed = 98.320193%

Time Step =4762
 deltaT = 0.00041302329 s
 Time = 1.9668169 s
 Simulation completed = 98.340845%

Time Step =4763
 deltaT = 0.00041302329 s
 Time = 1.9672299 s
 Simulation completed = 98.361496%

Time Step =4764
 deltaT = 0.00041302329 s
 Time = 1.9676429 s
 Simulation completed = 98.382147%

Time Step =4765
 deltaT = 0.00041302329 s
 Time = 1.968056 s
 Simulation completed = 98.402798%

Time Step =4766
 deltaT = 0.00041302329 s
 Time = 1.968469 s
 Simulation completed = 98.423449%

Time Step =4767
 deltaT = 0.00041302329 s
 Time = 1.968882 s
 Simulation completed = 98.4441%

Time Step =4768
 deltaT = 0.00041302329 s
 Time = 1.969295 s
 Simulation completed = 98.464752%

Time Step =4769
 deltaT = 0.00041302329 s
 Time = 1.9697081 s
 Simulation completed = 98.485403%

Time Step =4770
 deltaT = 0.00041302329 s
 Time = 1.9701211 s
 Simulation completed = 98.506054%

Time Step =4771
 deltaT = 0.00041302329 s
 Time = 1.9705341 s
 Simulation completed = 98.526705%

Time Step =4772
 deltaT = 0.00041302329 s
 Time = 1.9709471 s
 Simulation completed = 98.547356%

Time Step =4773
 deltaT = 0.00041302329 s
 Time = 1.9713601 s
 Simulation completed = 98.568007%

Time Step =4774
 deltaT = 0.00041302329 s
 Time = 1.9717732 s
 Simulation completed = 98.588659%

Time Step =4775
 deltaT = 0.00041302329 s
 Time = 1.9721862 s
 Simulation completed = 98.60931%

Time Step =4776
 deltaT = 0.00041302329 s
 Time = 1.9725992 s
 Simulation completed = 98.629961%

Time Step =4777
 deltaT = 0.00041302329 s
 Time = 1.9730122 s
 Simulation completed = 98.650612%

Time Step =4778
 deltaT = 0.00041302329 s
 Time = 1.9734253 s
 Simulation completed = 98.671263%

Time Step =4779
 deltaT = 0.00041302329 s
 Time = 1.9738383 s
 Simulation completed = 98.691914%

Time Step =4780
 deltaT = 0.00041302329 s
 Time = 1.9742513 s
 Simulation completed = 98.712566%

Time Step =4781
 deltaT = 0.00041302329 s
 Time = 1.9746643 s
 Simulation completed = 98.733217%

Time Step =4782
 deltaT = 0.00041302329 s
 Time = 1.9750774 s
 Simulation completed = 98.753868%

Time Step =4783
 deltaT = 0.00041302329 s
 Time = 1.9754904 s
 Simulation completed = 98.774519%

Time Step =4784
 deltaT = 0.00041302329 s
 Time = 1.9759034 s
 Simulation completed = 98.79517%

Time Step =4785
 deltaT = 0.00041302329 s
 Time = 1.9763164 s
 Simulation completed = 98.815821%

Time Step =4786
 deltaT = 0.00041302329 s
 Time = 1.9767294 s
 Simulation completed = 98.836472%

Time Step =4787
 deltaT = 0.00041302329 s
 Time = 1.9771425 s
 Simulation completed = 98.857124%

Time Step =4788
 deltaT = 0.00041302329 s
 Time = 1.9775555 s
 Simulation completed = 98.877775%

Time Step =4789
 deltaT = 0.00041302329 s
 Time = 1.9779685 s
 Simulation completed = 98.898426%

Time Step =4790
 deltaT = 0.00041302329 s
 Time = 1.9783815 s
 Simulation completed = 98.919077%

Time Step =4791
 deltaT = 0.00041302329 s
 Time = 1.9787946 s
 Simulation completed = 98.939728%

Time Step =4792
 deltaT = 0.00041302329 s
 Time = 1.9792076 s
 Simulation completed = 98.960379%

Time Step =4793
 deltaT = 0.00041302329 s
 Time = 1.9796206 s
 Simulation completed = 98.981031%

Time Step =4794
 deltaT = 0.00041302329 s
 Time = 1.9800336 s
 Simulation completed = 99.001682%

Time Step =4795
 deltaT = 0.00041302329 s
 Time = 1.9804467 s
 Simulation completed = 99.022333%

Time Step =4796
 deltaT = 0.00041302329 s
 Time = 1.9808597 s
 Simulation completed = 99.042984%

Time Step =4797
 deltaT = 0.00041302329 s
 Time = 1.9812727 s
 Simulation completed = 99.063635%

Time Step =4798
 deltaT = 0.00041302329 s
 Time = 1.9816857 s
 Simulation completed = 99.084286%

Time Step =4799
 deltaT = 0.00041302329 s
 Time = 1.9820988 s
 Simulation completed = 99.104938%

Time Step =4800
 deltaT = 0.00041302329 s
 Time = 1.9825118 s
 Simulation completed = 99.125589%

Time Step =4801
 deltaT = 0.00041302329 s
 Time = 1.9829248 s
 Simulation completed = 99.14624%

Time Step =4802
 deltaT = 0.00041302329 s
 Time = 1.9833378 s
 Simulation completed = 99.166891%

Time Step =4803
 deltaT = 0.00041302329 s
 Time = 1.9837508 s
 Simulation completed = 99.187542%

Time Step =4804
 deltaT = 0.00041302329 s
 Time = 1.9841639 s
 Simulation completed = 99.208193%

Time Step =4805
 deltaT = 0.00041302329 s
 Time = 1.9845769 s
 Simulation completed = 99.228845%

Time Step =4806
 deltaT = 0.00041302329 s
 Time = 1.9849899 s
 Simulation completed = 99.249496%

Time Step =4807
 deltaT = 0.00041302329 s
 Time = 1.9854029 s
 Simulation completed = 99.270147%

Time Step =4808
 deltaT = 0.00041302329 s
 Time = 1.985816 s
 Simulation completed = 99.290798%

Time Step =4809
 deltaT = 0.00041302329 s
 Time = 1.986229 s
 Simulation completed = 99.311449%

Time Step =4810
 deltaT = 0.00041302329 s
 Time = 1.986642 s
 Simulation completed = 99.3321%

Time Step =4811
 deltaT = 0.00041302329 s
 Time = 1.987055 s
 Simulation completed = 99.352752%

Time Step =4812
 deltaT = 0.00041302329 s
 Time = 1.9874681 s
 Simulation completed = 99.373403%

Time Step =4813
 deltaT = 0.00041302329 s
 Time = 1.9878811 s
 Simulation completed = 99.394054%

Time Step =4814
 deltaT = 0.00041302329 s
 Time = 1.9882941 s
 Simulation completed = 99.414705%

Time Step =4815
 deltaT = 0.00041302329 s
 Time = 1.9887071 s
 Simulation completed = 99.435356%

Time Step =4816
 deltaT = 0.00041302329 s
 Time = 1.9891201 s
 Simulation completed = 99.456007%

Time Step =4817
 deltaT = 0.00041302329 s
 Time = 1.9895332 s
 Simulation completed = 99.476659%

Time Step =4818
 deltaT = 0.00041302329 s
 Time = 1.9899462 s
 Simulation completed = 99.49731%

Time Step =4819
 deltaT = 0.00041302329 s
 Time = 1.9903592 s
 Simulation completed = 99.517961%

Time Step =4820
 deltaT = 0.00041302329 s
 Time = 1.9907722 s
 Simulation completed = 99.538612%

Time Step =4821
 deltaT = 0.00041302329 s
 Time = 1.9911853 s
 Simulation completed = 99.559263%

Time Step =4822
 deltaT = 0.00041302329 s
 Time = 1.9915983 s
 Simulation completed = 99.579914%

Time Step =4823
 deltaT = 0.00041302329 s
 Time = 1.9920113 s
 Simulation completed = 99.600566%

Time Step =4824
 deltaT = 0.00041302329 s
 Time = 1.9924243 s
 Simulation completed = 99.621217%

Time Step =4825
 deltaT = 0.00041302329 s
 Time = 1.9928374 s
 Simulation completed = 99.641868%

Time Step =4826
 deltaT = 0.00041302329 s
 Time = 1.9932504 s
 Simulation completed = 99.662519%

Time Step =4827
 deltaT = 0.00041302329 s
 Time = 1.9936634 s
 Simulation completed = 99.68317%

Time Step =4828
 deltaT = 0.00041302329 s
 Time = 1.9940764 s
 Simulation completed = 99.703821%

Time Step =4829
 deltaT = 0.00041302329 s
 Time = 1.9944895 s
 Simulation completed = 99.724473%

Time Step =4830
 deltaT = 0.00041302329 s
 Time = 1.9949025 s
 Simulation completed = 99.745124%

Time Step =4831
 deltaT = 0.00041302329 s
 Time = 1.9953155 s
 Simulation completed = 99.765775%

Time Step =4832
 deltaT = 0.00041302329 s
 Time = 1.9957285 s
 Simulation completed = 99.786426%

Time Step =4833
 deltaT = 0.00041302329 s
 Time = 1.9961415 s
 Simulation completed = 99.807077%

Time Step =4834
 deltaT = 0.00041302329 s
 Time = 1.9965546 s
 Simulation completed = 99.827728%

Time Step =4835
 deltaT = 0.00041302329 s
 Time = 1.9969676 s
 Simulation completed = 99.84838%

Time Step =4836
 deltaT = 0.00041302329 s
 Time = 1.9973806 s
 Simulation completed = 99.869031%

Time Step =4837
 deltaT = 0.00041302329 s
 Time = 1.9977936 s
 Simulation completed = 99.889682%

Time Step =4838
 deltaT = 0.00041302329 s
 Time = 1.9982067 s
 Simulation completed = 99.910333%

Time Step =4839
 deltaT = 0.00041302329 s
 Time = 1.9986197 s
 Simulation completed = 99.930984%

Time Step =4840
 deltaT = 0.00041302329 s
 Time = 1.9990327 s
 Simulation completed = 99.951635%

Time Step =4841
 deltaT = 0.00041302329 s
 Time = 1.9994457 s
 Simulation completed = 99.972287%
--> FOAM Warning : 
    From function virtual Foam::Time& Foam::Time::operator++()
    in file db/Time/Time.C at line 1165
    Increased the timePrecision from 13 to 14 to distinguish between timeNames at time 1.9998587538362

Time Step =4842
 deltaT = 0.00041302329 s
 Time = 1.9998588 s
CoG: (75.752226 75.752225 -1.8603802e-07)
 Simulation completed = 99.992938%

ExecutionTime = 60.06 s  ClockTime = 60 s
End

